@<TRIPOS>MOLECULE
../1kkq_L.pdb
 81 84 0 0 0
SMALL
GASTEIGER

@<TRIPOS>ATOM
      1  N         73.3010   29.3380   26.3950 N.pl3 289  LIG289     -0.3425
      2  CA        72.7480   29.0630   27.7190 C.3   289  LIG289      0.0398
      3  CB        73.8590   28.9180   28.7580 C.3   289  LIG289     -0.0078
      4  CG        75.1810   28.3010   28.3640 C.ar  289  LIG289     -0.0453
      5  CD1       76.1160   29.0330   27.7400 C.ar  289  LIG289     -0.0551
      6  CD2       75.4560   27.0130   28.6190 C.ar  289  LIG289     -0.0551
      7  CE1       77.2910   28.4990   27.3750 C.ar  289  LIG289     -0.0197
      8  CE2       76.6310   26.4790   28.2550 C.ar  289  LIG289     -0.0197
      9  CZ        77.5640   27.2100   27.6250 C.ar  289  LIG289      0.1205
     10  OH        78.7660   26.6740   27.2410 O.3   289  LIG289     -0.4916
     11  C1A       72.9910   28.7860   25.1550 C.2   289  LIG289      0.0047
     12  C1F       73.6520   29.1940   24.0740 C.2   289  LIG289      0.0021
     13  C1B       71.9440   27.7310   24.9480 C.3   289  LIG289     -0.0267
     14  C1H       75.3750   30.5410   22.7220 C.ar  289  LIG289      0.0217
     15  C1I       74.7370   30.7140   21.5550 C.ar  289  LIG289     -0.0504
     16  C1J       75.4150   31.0310   20.4420 C.ar  289  LIG289     -0.0494
     17  C1K       76.7480   31.1860   20.4490 C.ar  289  LIG289      0.0548
     18  C1N       77.5390   31.5450   19.2120 C.3   289  LIG289      0.4174
     19  F1Q       76.7870   31.5670   18.0750 F     289  LIG289     -0.1659
     20  F1P       78.0850   32.7870   19.3410 F     289  LIG289     -0.1659
     21  F1O       78.5640   30.6760   18.9850 F     289  LIG289     -0.1659
     22  C1L       77.3830   31.0100   21.6170 C.ar  289  LIG289     -0.0494
     23  C1M       76.7070   30.6930   22.7320 C.ar  289  LIG289     -0.0504
     24  C1G       74.7450   30.2120   23.9300 C.2   289  LIG289      0.1875
     25  O1G       75.1210   30.8060   24.9390 O.2   289  LIG289     -0.2872
     26  O3F       80.4760   25.6080   21.7450 O.2   289  LIG289     -0.4402
     27  C3G       80.3680   24.2810   22.0700 C.ar  289  LIG289      0.2276
     28  N3H       80.2490   24.1640   23.4410 N.ar  289  LIG289     -0.2136
     29  C3C       80.2860   25.4400   23.9660 C.ar  289  LIG289      0.0860
     30  C3D       80.4280   26.3320   22.9070 C.ar  289  LIG289      0.1258
     31  C3E       80.5220   27.8390   22.9190 C.3   289  LIG289     -0.0045
     32  C3I       80.3820   23.3000   21.1560 C.ar  289  LIG289      0.0369
     33  C3N       80.2790   22.0010   21.4770 C.ar  289  LIG289     -0.0495
     34  C3M       80.2990   21.0430   20.5370 C.ar  289  LIG289     -0.0610
     35  C3L       80.4240   21.3730   19.2440 C.ar  289  LIG289     -0.0617
     36  C3K       80.5270   22.6660   18.9030 C.ar  289  LIG289     -0.0610
     37  C3J       80.5060   23.6090   19.8560 C.ar  289  LIG289     -0.0495
     38  C3A       78.7840   26.0100   25.9790 C.3   289  LIG289      0.0951
     39  C3B       80.1870   25.7310   25.4450 C.3   289  LIG289      0.0272
     40  C4A       71.7930   30.1840   28.1210 C.3   289  LIG289      0.0302
     41  N4B       70.3870   29.8840   27.8630 N.am  289  LIG289     -0.3135
     42  C4C       69.6470   30.4980   26.9570 C.2   289  LIG289      0.2128
     43  O4C       70.0640   31.3960   26.2270 O.2   289  LIG289     -0.2758
     44  C4D       68.2010   30.0440   26.8410 C.3   289  LIG289      0.0211
     45  C4E       67.9990   28.8270   25.9410 C.3   289  LIG289     -0.0570
     46 H          74.0066   30.0243   26.3767 H     289  LIG289      0.1461
     47 H          72.2116   28.1381   27.6776 H     289  LIG289      0.0516
     48 H          73.4634   28.3211   29.5531 H     289  LIG289      0.0332
     49 H          74.1170   29.9307   28.9877 H     289  LIG289      0.0332
     50 H          75.9275   30.0271   27.5367 H     289  LIG289      0.0621
     51 H          74.7560   26.4270   29.1003 H     289  LIG289      0.0621
     52 H          77.9922   29.0861   26.8968 H     289  LIG289      0.0654
     53 H          76.8217   25.4864   28.4634 H     289  LIG289      0.0654
     54 H          73.3670   28.7369   23.1937 H     289  LIG289      0.0671
     55 H          71.8967   27.4742   23.9103 H     289  LIG289      0.0290
     56 H          70.9933   28.1046   25.2667 H     289  LIG289      0.0290
     57 H          72.1955   26.8620   25.5193 H     289  LIG289      0.0290
     58 H          73.7120   30.6018   21.5129 H     289  LIG289      0.0625
     59 H          74.8985   31.1590   19.5578 H     289  LIG289      0.0623
     60 H          78.4082   31.1201   21.6590 H     289  LIG289      0.0623
     61 H          77.2234   30.5634   23.6160 H     289  LIG289      0.0625
     62 H          80.6258   28.1979   21.9163 H     289  LIG289      0.0308
     63 H          81.3725   28.1387   23.4950 H     289  LIG289      0.0308
     64 H          79.6343   28.2483   23.3542 H     289  LIG289      0.0308
     65 H          80.1822   21.7326   22.4688 H     289  LIG289      0.0625
     66 H          80.2180   20.0511   20.8102 H     289  LIG289      0.0618
     67 H          80.4408   20.6396   18.5182 H     289  LIG289      0.0618
     68 H          80.6220   22.9341   17.9110 H     289  LIG289      0.0618
     69 H          80.5875   24.6006   19.5820 H     289  LIG289      0.0625
     70 H          78.2714   25.0765   26.0824 H     289  LIG289      0.0700
     71 H          78.3099   26.6644   25.2777 H     289  LIG289      0.0700
     72 H          80.7925   26.5887   25.6513 H     289  LIG289      0.0362
     73 H          80.5112   24.8380   25.9374 H     289  LIG289      0.0362
     74 H          72.0561   31.0639   27.5720 H     289  LIG289      0.0480
     75 H          71.8941   30.3142   29.1782 H     289  LIG289      0.0480
     76 H          69.9622   29.1768   28.4003 H     289  LIG289      0.1487
     77 H          67.8460   29.8000   27.8205 H     289  LIG289      0.0356
     78 H          67.6595   30.8513   26.3938 H     289  LIG289      0.0356
     79 H          68.5251   27.9898   26.3499 H     289  LIG289      0.0234
     80 H          68.3747   29.0409   24.9622 H     289  LIG289      0.0234
     81 H          66.9557   28.5975   25.8803 H     289  LIG289      0.0234
@<TRIPOS>BOND
     1    19    18    1
     2    36    35   ar
     3    36    37   ar
     4    21    18    1
     5    18    20    1
     6    18    17    1
     7    35    34   ar
     8    37    32   ar
     9    16    17   ar
    10    16    15   ar
    11    17    22   ar
    12    34    33   ar
    13    32    33   ar
    14    32    27    1
    15    15    14   ar
    16    22    23   ar
    17    26    27   ar
    18    26    30   ar
    19    27    28   ar
    20    14    23   ar
    21    14    24    1
    22    30    31    1
    23    30    29   ar
    24    28    29   ar
    25    24    12    1
    26    24    25    2
    27    29    39    1
    28    12    11    2
    29    13    11    1
    30    11     1    1
    31    39    38    1
    32    45    44    1
    33    38    10    1
    34    43    42    2
    35     1     2    1
    36    44    42    1
    37    42    41   am
    38    10     9    1
    39     7     9   ar
    40     7     5   ar
    41     9     8   ar
    42     2    40    1
    43     2     3    1
    44     5     4   ar
    45    41    40    1
    46     8     6   ar
    47     4     6   ar
    48     4     3    1
    49     1    46    1
    50     2    47    1
    51     3    48    1
    52     3    49    1
    53     5    50    1
    54     6    51    1
    55     7    52    1
    56     8    53    1
    57    12    54    1
    58    13    55    1
    59    13    56    1
    60    13    57    1
    61    15    58    1
    62    16    59    1
    63    22    60    1
    64    23    61    1
    65    31    62    1
    66    31    63    1
    67    31    64    1
    68    33    65    1
    69    34    66    1
    70    35    67    1
    71    36    68    1
    72    37    69    1
    73    38    70    1
    74    38    71    1
    75    39    72    1
    76    39    73    1
    77    40    74    1
    78    40    75    1
    79    41    76    1
    80    44    77    1
    81    44    78    1
    82    45    79    1
    83    45    80    1
    84    45    81    1
