@<TRIPOS>MOLECULE
LIG
   81    84     1     0     0
SMALL
bcc


@<TRIPOS>ATOM
      1 N           73.3010    29.3380    26.3950 nu         1 LIG      -0.746000
      2 CA          72.7480    29.0630    27.7190 c3         1 LIG       0.193500
      3 CB          73.8590    28.9180    28.7580 c3         1 LIG      -0.048100
      4 CG          75.1810    28.3010    28.3640 ca         1 LIG      -0.135300
      5 CD1         76.1160    29.0330    27.7400 ca         1 LIG      -0.090500
      6 CD2         75.4560    27.0130    28.6190 ca         1 LIG      -0.090500
      7 CE1         77.2910    28.4990    27.3750 ca         1 LIG      -0.182500
      8 CE2         76.6310    26.4790    28.2550 ca         1 LIG      -0.182500
      9 CZ          77.5640    27.2100    27.6250 ca         1 LIG       0.130100
     10 OH          78.7660    26.6740    27.2410 os         1 LIG      -0.330900
     11 C1A         72.9910    28.7860    25.1550 c2         1 LIG       0.241800
     12 C1B         71.9440    27.7310    24.9480 c3         1 LIG      -0.083900
     13 C1F         73.6520    29.1940    24.0740 ce         1 LIG      -0.427200
     14 C1G         74.7450    30.2120    23.9300 c          1 LIG       0.598900
     15 C1H         75.3750    30.5410    22.7220 ca         1 LIG      -0.117600
     16 C1I         74.7370    30.7140    21.5550 ca         1 LIG      -0.098000
     17 C1J         75.4150    31.0310    20.4420 ca         1 LIG      -0.093000
     18 C1K         76.7480    31.1860    20.4490 ca         1 LIG      -0.155300
     19 C1L         77.3830    31.0100    21.6170 ca         1 LIG      -0.093000
     20 C1M         76.7070    30.6930    22.7320 ca         1 LIG      -0.098000
     21 C1N         77.5390    31.5450    19.2120 c3         1 LIG       0.686200
     22 O1G         75.1210    30.8060    24.9390 o          1 LIG      -0.600100
     23 C3A         78.7840    26.0100    25.9790 c3         1 LIG       0.135400
     24 C3B         80.1870    25.7310    25.4450 c3         1 LIG      -0.132700
     25 C3C         80.2860    25.4400    23.9660 cc         1 LIG       0.236300
     26 C3D         80.4280    26.3320    22.9070 cd         1 LIG       0.168700
     27 C3E         80.5220    27.8390    22.9190 c3         1 LIG      -0.128400
     28 C3G         80.3680    24.2810    22.0700 cd         1 LIG       0.553900
     29 C3I         80.3820    23.3000    21.1560 ca         1 LIG      -0.137500
     30 C3J         80.5060    23.6090    19.8560 ca         1 LIG      -0.091000
     31 C3K         80.5270    22.6660    18.9030 ca         1 LIG      -0.138000
     32 C3L         80.4240    21.3730    19.2440 ca         1 LIG      -0.109000
     33 C3M         80.2990    21.0430    20.5370 ca         1 LIG      -0.138000
     34 C3N         80.2790    22.0010    21.4770 ca         1 LIG      -0.091000
     35 N3H         80.2490    24.1640    23.4410 nc         1 LIG      -0.666000
     36 O3F         80.4760    25.6080    21.7450 os         1 LIG      -0.380800
     37 C4A         71.7930    30.1840    28.1210 c3         1 LIG       0.071000
     38 C4C         69.6470    30.4980    26.9570 c          1 LIG       0.655100
     39 C4D         68.2010    30.0440    26.8410 c3         1 LIG      -0.156400
     40 C4E         67.9990    28.8270    25.9410 c3         1 LIG      -0.094100
     41 N4B         70.3870    29.8840    27.8630 ns         1 LIG      -0.558900
     42 O4C         70.0640    31.3960    26.2270 o          1 LIG      -0.598100
     43 F1O         78.5640    30.6760    18.9850 f          1 LIG      -0.236967
     44 F1P         78.0850    32.7870    19.3410 f          1 LIG      -0.236967
     45 F1Q         76.7870    31.5670    18.0750 f          1 LIG      -0.236967
     46 H           74.0070    30.0240    26.3770 hn         1 LIG       0.460800
     47 H1          72.2120    28.1380    27.6780 h1         1 LIG       0.059700
     48 H2          73.4630    28.3210    29.5530 hc         1 LIG       0.061200
     49 H3          74.1170    29.9310    28.9880 hc         1 LIG       0.061200
     50 H4          75.9270    30.0270    27.5370 ha         1 LIG       0.141000
     51 H5          74.7560    26.4270    29.1000 ha         1 LIG       0.141000
     52 H6          77.9920    29.0860    26.8970 ha         1 LIG       0.146000
     53 H7          76.8220    25.4860    28.4630 ha         1 LIG       0.146000
     54 H8          73.3670    28.7370    23.1940 ha         1 LIG       0.143000
     55 H9          71.8970    27.4740    23.9100 hc         1 LIG       0.058700
     56 H10         70.9930    28.1050    25.2670 hc         1 LIG       0.058700
     57 H11         72.1960    26.8620    25.5190 hc         1 LIG       0.058700
     58 H12         73.7120    30.6020    21.5130 ha         1 LIG       0.152000
     59 H13         74.8980    31.1590    19.5580 ha         1 LIG       0.152500
     60 H14         78.4080    31.1200    21.6590 ha         1 LIG       0.152500
     61 H15         77.2230    30.5630    23.6160 ha         1 LIG       0.152000
     62 H16         80.6260    28.1980    21.9160 hc         1 LIG       0.062700
     63 H17         81.3720    28.1390    23.4950 hc         1 LIG       0.062700
     64 H18         79.6340    28.2480    23.3540 hc         1 LIG       0.062700
     65 H19         80.1820    21.7330    22.4690 ha         1 LIG       0.152000
     66 H20         80.2180    20.0510    20.8100 ha         1 LIG       0.137500
     67 H21         80.4410    20.6400    18.5180 ha         1 LIG       0.135000
     68 H22         80.6220    22.9340    17.9110 ha         1 LIG       0.137500
     69 H23         80.5880    24.6010    19.5820 ha         1 LIG       0.152000
     70 H24         78.2710    25.0760    26.0820 h1         1 LIG       0.070700
     71 H25         78.3100    26.6640    25.2780 h1         1 LIG       0.070700
     72 H26         80.7930    26.5890    25.6510 hc         1 LIG       0.066200
     73 H27         80.5110    24.8380    25.9370 hc         1 LIG       0.066200
     74 H28         72.0560    31.0640    27.5720 h1         1 LIG       0.069700
     75 H29         71.8940    30.3140    29.1780 h1         1 LIG       0.069700
     76 H30         69.9620    29.1770    28.4000 hn         1 LIG       0.299500
     77 H31         67.8460    29.8000    27.8200 hc         1 LIG       0.073700
     78 H32         67.6600    30.8510    26.3940 hc         1 LIG       0.073700
     79 H33         68.5250    27.9900    26.3500 hc         1 LIG       0.041033
     80 H34         68.3750    29.0410    24.9620 hc         1 LIG       0.041033
     81 H35         66.9560    28.5970    25.8800 hc         1 LIG       0.041033
@<TRIPOS>BOND
     1     1     2 1   
     2     1    46 1   
     3     2     3 1   
     4     2    37 1   
     5     2    47 1   
     6     3    48 1   
     7     3    49 1   
     8     3     4 1   
     9     4     6 ar  
    10     4     5 ar  
    11     5    50 1   
    12     6    51 1   
    13     5     7 ar  
    14     7     9 ar  
    15     7    52 1   
    16     6     8 ar  
    17     8    53 1   
    18     8     9 ar  
    19     9    10 1   
    20     1    11 1   
    21    11    12 1   
    22    12    55 1   
    23    12    56 1   
    24    12    57 1   
    25    11    13 2   
    26    13    54 1   
    27    13    14 1   
    28    14    22 2   
    29    14    15 1   
    30    15    20 ar  
    31    15    16 ar  
    32    16    58 1   
    33    16    17 ar  
    34    17    18 ar  
    35    17    59 1   
    36    18    19 ar  
    37    19    20 ar  
    38    19    60 1   
    39    20    61 1   
    40    18    21 1   
    41    21    44 1   
    42    10    23 1   
    43    23    70 1   
    44    23    71 1   
    45    23    24 1   
    46    24    72 1   
    47    24    73 1   
    48    24    25 1   
    49    25    26 2   
    50    26    27 1   
    51    27    62 1   
    52    27    63 1   
    53    27    64 1   
    54    28    35 2   
    55    28    29 1   
    56    29    34 ar  
    57    29    30 ar  
    58    30    69 1   
    59    30    31 ar  
    60    31    32 ar  
    61    31    68 1   
    62    32    33 ar  
    63    32    67 1   
    64    33    34 ar  
    65    33    66 1   
    66    34    65 1   
    67    25    35 1   
    68    26    36 1   
    69    28    36 1   
    70    37    74 1   
    71    37    75 1   
    72    38    41 1   
    73    38    39 1   
    74    39    77 1   
    75    39    78 1   
    76    39    40 1   
    77    40    79 1   
    78    40    80 1   
    79    40    81 1   
    80    37    41 1   
    81    41    76 1   
    82    38    42 2   
    83    21    43 1   
    84    21    45 1   
@<TRIPOS>SUBSTRUCTURE
     1 LIG         1 TEMP              0 ****  ****    0 ROOT
