# created with PyMOL 2.5.5
@<TRIPOS>MOLECULE
../1kkq_L.pdb
81 84 1                 
SMALL
USER_CHARGES
@<TRIPOS>ATOM
1	   N	73.301	29.338	26.395	N.pl3	1	LIG289	-0.343	
2	  CA	72.748	29.063	27.719	C.3	1	LIG289	0.040	
3	  CB	73.859	28.918	28.758	C.3	1	LIG289	-0.008	
4	  CG	75.181	28.301	28.364	C.2	1	LIG289	-0.045	
5	 CD1	76.116	29.033	27.740	C.2	1	LIG289	-0.055	
6	 CD2	75.456	27.013	28.619	C.2	1	LIG289	-0.055	
7	 CE1	77.291	28.499	27.375	C.2	1	LIG289	-0.020	
8	 CE2	76.631	26.479	28.255	C.2	1	LIG289	-0.020	
9	  CZ	77.564	27.210	27.625	C.2	1	LIG289	0.120	
10	  OH	78.766	26.674	27.241	O.3	1	LIG289	-0.492	
11	 C1A	72.991	28.786	25.155	C.2	1	LIG289	0.005	
12	 C1B	71.944	27.731	24.948	C.3	1	LIG289	-0.027	
13	 C1F	73.652	29.194	24.074	C.2	1	LIG289	0.002	
14	 C1G	74.745	30.212	23.930	C.2	1	LIG289	0.188	
15	 C1H	75.375	30.541	22.722	C.2	1	LIG289	0.022	
16	 C1I	74.737	30.714	21.555	C.2	1	LIG289	-0.050	
17	 C1J	75.415	31.031	20.442	C.2	1	LIG289	-0.049	
18	 C1K	76.748	31.186	20.449	C.2	1	LIG289	0.055	
19	 C1L	77.383	31.010	21.617	C.2	1	LIG289	-0.049	
20	 C1M	76.707	30.693	22.732	C.2	1	LIG289	-0.050	
21	 C1N	77.539	31.545	19.212	C.3	1	LIG289	0.417	
22	 O1G	75.121	30.806	24.939	O.2	1	LIG289	-0.287	
23	 C3A	78.784	26.010	25.979	C.3	1	LIG289	0.095	
24	 C3B	80.187	25.731	25.445	C.3	1	LIG289	0.027	
25	 C3C	80.286	25.440	23.966	C.2	1	LIG289	0.086	
26	 C3D	80.428	26.332	22.907	C.2	1	LIG289	0.126	
27	 C3E	80.522	27.839	22.919	C.3	1	LIG289	-0.004	
28	 C3G	80.368	24.281	22.070	C.2	1	LIG289	0.228	
29	 C3I	80.382	23.300	21.156	C.2	1	LIG289	0.037	
30	 C3J	80.506	23.609	19.856	C.2	1	LIG289	-0.049	
31	 C3K	80.527	22.666	18.903	C.2	1	LIG289	-0.061	
32	 C3L	80.424	21.373	19.244	C.2	1	LIG289	-0.062	
33	 C3M	80.299	21.043	20.537	C.2	1	LIG289	-0.061	
34	 C3N	80.279	22.001	21.477	C.2	1	LIG289	-0.049	
35	 N3H	80.249	24.164	23.441	N.2	1	LIG289	-0.214	
36	 O3F	80.476	25.608	21.745	O.3	1	LIG289	-0.440	
37	 C4A	71.793	30.184	28.121	C.3	1	LIG289	0.030	
38	 C4C	69.647	30.498	26.957	C.2	1	LIG289	0.213	
39	 C4D	68.201	30.044	26.841	C.3	1	LIG289	0.021	
40	 C4E	67.999	28.827	25.941	C.3	1	LIG289	-0.057	
41	 N4B	70.387	29.884	27.863	N.pl3	1	LIG289	-0.313	
42	 O4C	70.064	31.396	26.227	O.2	1	LIG289	-0.276	
43	 F1O	78.564	30.676	18.985	 F	1	LIG289	-0.166	
44	 F1P	78.085	32.787	19.341	 F	1	LIG289	-0.166	
45	 F1Q	76.787	31.567	18.075	 F	1	LIG289	-0.166	
46	   H	74.007	30.024	26.377	 H	1	LIG289	0.146	
47	   H	72.212	28.138	27.678	 H	1	LIG289	0.052	
48	   H	73.463	28.321	29.553	 H	1	LIG289	0.033	
49	   H	74.117	29.931	28.988	 H	1	LIG289	0.033	
50	   H	75.927	30.027	27.537	 H	1	LIG289	0.062	
51	   H	74.756	26.427	29.100	 H	1	LIG289	0.062	
52	   H	77.992	29.086	26.897	 H	1	LIG289	0.065	
53	   H	76.822	25.486	28.463	 H	1	LIG289	0.065	
54	   H	73.367	28.737	23.194	 H	1	LIG289	0.067	
55	   H	71.897	27.474	23.910	 H	1	LIG289	0.029	
56	   H	70.993	28.105	25.267	 H	1	LIG289	0.029	
57	   H	72.196	26.862	25.519	 H	1	LIG289	0.029	
58	   H	73.712	30.602	21.513	 H	1	LIG289	0.062	
59	   H	74.898	31.159	19.558	 H	1	LIG289	0.062	
60	   H	78.408	31.120	21.659	 H	1	LIG289	0.062	
61	   H	77.223	30.563	23.616	 H	1	LIG289	0.062	
62	   H	80.626	28.198	21.916	 H	1	LIG289	0.031	
63	   H	81.372	28.139	23.495	 H	1	LIG289	0.031	
64	   H	79.634	28.248	23.354	 H	1	LIG289	0.031	
65	   H	80.182	21.733	22.469	 H	1	LIG289	0.062	
66	   H	80.218	20.051	20.810	 H	1	LIG289	0.062	
67	   H	80.441	20.640	18.518	 H	1	LIG289	0.062	
68	   H	80.622	22.934	17.911	 H	1	LIG289	0.062	
69	   H	80.588	24.601	19.582	 H	1	LIG289	0.062	
70	   H	78.271	25.076	26.082	 H	1	LIG289	0.070	
71	   H	78.310	26.664	25.278	 H	1	LIG289	0.070	
72	   H	80.793	26.589	25.651	 H	1	LIG289	0.036	
73	   H	80.511	24.838	25.937	 H	1	LIG289	0.036	
74	   H	72.056	31.064	27.572	 H	1	LIG289	0.048	
75	   H	71.894	30.314	29.178	 H	1	LIG289	0.048	
76	   H	69.962	29.177	28.400	 H	1	LIG289	0.149	
77	   H	67.846	29.800	27.820	 H	1	LIG289	0.036	
78	   H	67.660	30.851	26.394	 H	1	LIG289	0.036	
79	   H	68.525	27.990	26.350	 H	1	LIG289	0.023	
80	   H	68.375	29.041	24.962	 H	1	LIG289	0.023	
81	   H	66.956	28.597	25.880	 H	1	LIG289	0.023	
@<TRIPOS>BOND
1 1 2 1
2 1 46 1
3 2 3 1
4 2 37 1
5 2 47 1
6 3 48 1
7 3 49 1
8 3 4 1
9 4 6 ar
10 4 5 ar
11 5 50 1
12 6 51 1
13 5 7 ar
14 7 9 ar
15 7 52 1
16 6 8 ar
17 8 53 1
18 8 9 ar
19 9 10 1
20 1 11 1
21 11 12 1
22 12 55 1
23 12 56 1
24 12 57 1
25 11 13 2
26 13 54 1
27 13 14 1
28 14 22 2
29 14 15 1
30 15 20 ar
31 15 16 ar
32 16 58 1
33 16 17 ar
34 17 18 ar
35 17 59 1
36 18 19 ar
37 19 20 ar
38 19 60 1
39 20 61 1
40 18 21 1
41 21 44 1
42 10 23 1
43 23 70 1
44 23 71 1
45 23 24 1
46 24 72 1
47 24 73 1
48 24 25 1
49 25 26 2
50 26 27 1
51 27 62 1
52 27 63 1
53 27 64 1
54 28 35 2
55 28 29 1
56 29 34 ar
57 29 30 ar
58 30 69 1
59 30 31 ar
60 31 32 ar
61 31 68 1
62 32 33 ar
63 32 67 1
64 33 34 ar
65 33 66 1
66 34 65 1
67 25 35 1
68 26 36 1
69 28 36 1
70 37 74 1
71 37 75 1
72 38 41 1
73 38 39 1
74 39 77 1
75 39 78 1
76 39 40 1
77 40 79 1
78 40 80 1
79 40 81 1
80 37 41 1
81 41 76 1
82 38 42 2
83 21 43 1
84 21 45 1
@<TRIPOS>SUBSTRUCTURE
1	LIG289	1	GROUP	1 ****	LIG
