@<TRIPOS>MOLECULE
LIG
  104   107     1     0     0
SMALL
bcc


@<TRIPOS>ATOM
      1 C1           5.4200    84.1480   120.5110 c2       288 LIG      -0.121400
      2 C4           4.0870    84.1870   120.2830 c2       288 LIG      -0.091400
      3 C11          3.0490    84.7990   121.1950 c3       288 LIG      -0.048500
      4 C18          2.1420    83.7030   121.7610 c3       288 LIG      -0.088100
      5 C17          2.1960    85.8550   120.4940 c3       288 LIG       0.137400
      6 O24          1.5460    86.6490   121.5040 os       288 LIG      -0.437900
      7 C31          0.4840    87.5860   121.1910 c        288 LIG       0.655100
      8 O37          0.2040    87.7540   120.0060 o        288 LIG      -0.587000
      9 C36         -0.2320    88.2910   122.3000 c3       288 LIG      -0.161100
     10 C10          3.7040    83.5040   118.9810 c5       288 LIG      -0.087200
     11 C6           5.0770    83.4230   118.3240 c5       288 LIG       0.148100
     12 O13          5.2610    82.3270   117.4270 oh       288 LIG      -0.588800
     13 C2           6.1080    83.3750   119.4320 c5       288 LIG      -0.007600
     14 C7           7.3370    84.1150   118.9440 c3       288 LIG      -0.084100
     15 C5           6.4340    81.9260   119.7850 c2       288 LIG      -0.172200
     16 C12          6.3060    81.2240   120.9500 c2       288 LIG      -0.097400
     17 C20          6.7320    79.7760   121.0540 c5       288 LIG      -0.038500
     18 C27          8.2040    79.5120   120.7370 c3       288 LIG       0.134400
     19 O32          8.4890    78.1040   120.6190 os       288 LIG      -0.423600
     20 C38          9.8750    77.8370   120.4290 c3       288 LIG       0.116700
     21 C26          6.4350    79.3550   122.4860 c5       288 LIG      -0.072400
     22 C25          5.4920    80.4120   123.0440 c5       288 LIG      -0.080400
     23 C19          5.7170    81.7030   122.2520 c5       288 LIG      -0.022500
     24 C15          6.5700    82.7150   123.0580 c3       288 LIG      -0.080700
     25 C23          8.0790    82.7610   122.7500 c3       288 LIG      -0.094100
     26 C9           5.9960    84.1170   122.9690 c3       288 LIG       0.126100
     27 O16          6.6210    84.9070   123.9840 oh       288 LIG      -0.591800
     28 C3           6.2260    84.7960   121.6290 c3       288 LIG       0.171300
     29 O8           5.9020    86.1930   121.7730 os       288 LIG      -0.445600
     30 C14          6.8370    87.2300   121.3900 c6       288 LIG       0.296900
     31 O22          6.9500    87.4100   119.9640 os       288 LIG      -0.410600
     32 C30          5.7400    87.7220   119.2710 c6       288 LIG       0.103100
     33 C33          5.0930    88.9920   119.8010 c6       288 LIG       0.122100
     34 O39          3.7750    89.1050   119.2160 oh       288 LIG      -0.598800
     35 C28          5.0140    89.0010   121.3310 c6       288 LIG       0.079100
     36 O34          4.6980    90.3410   121.7110 os       288 LIG      -0.421900
     37 C40          4.1510    90.6710   123.0430 c        288 LIG       0.655100
     38 O43          2.9350    90.5890   123.2150 o        288 LIG      -0.571000
     39 C42          5.0890    91.1430   124.1520 c3       288 LIG      -0.149100
     40 C21          6.3360    88.5570   121.9650 c6       288 LIG       0.118100
     41 O29          6.1250    88.4140   123.3680 oh       288 LIG      -0.595800
     42 C35          6.0400    87.8800   117.7890 c3       288 LIG       0.137400
     43 O41          7.1800    88.7380   117.6610 os       288 LIG      -0.413600
     44 C44          7.9110    88.7820   116.4010 c3       288 LIG       0.180000
     45 C47          7.9000    87.4770   115.6280 c3       288 LIG      -0.097600
     46 C46          9.3640    89.1590   116.7330 c3       288 LIG      -0.097600
     47 C45          7.3490    89.8490   115.4780 c2       288 LIG      -0.195200
     48 C48          6.2420    89.6620   114.7810 c2       288 LIG      -0.219000
     49 H            3.5780    85.2890   121.9850 hc       288 LIG       0.086700
     50 H1           1.6200    83.2230   120.9600 hc       288 LIG       0.040367
     51 H2           1.4350    84.1380   122.4360 hc       288 LIG       0.040367
     52 H3           2.7360    82.9820   122.2820 hc       288 LIG       0.040367
     53 H4           1.4610    85.3780   119.8790 h1       288 LIG       0.068700
     54 H5           2.8090    86.4750   119.8740 h1       288 LIG       0.068700
     55 H6          -0.9780    88.9380   121.8880 hc       288 LIG       0.087033
     56 H7           0.4680    88.8690   122.8660 hc       288 LIG       0.087033
     57 H8          -0.6990    87.5700   122.9380 hc       288 LIG       0.087033
     58 H9           3.2840    82.5340   119.1480 hc       288 LIG       0.062200
     59 H10          2.9540    84.0070   118.4070 hc       288 LIG       0.062200
     60 H11          5.1830    84.2880   117.7040 h1       288 LIG       0.082700
     61 H12          5.1800    81.4930   117.9150 ho       288 LIG       0.405000
     62 H13          7.8140    83.5460   118.1740 hc       288 LIG       0.046033
     63 H14          8.0170    84.2530   119.7580 hc       288 LIG       0.046033
     64 H15          7.0480    85.0690   118.5550 hc       288 LIG       0.046033
     65 H16          6.8210    81.3770   119.0010 ha       288 LIG       0.132000
     66 H17          6.1940    79.2150   120.3190 hc       288 LIG       0.074700
     67 H18          8.4500    79.9920   119.8130 h1       288 LIG       0.030700
     68 H19          8.7900    79.9000   121.5440 h1       288 LIG       0.030700
     69 H20         10.0270    76.7810   120.3480 h1       288 LIG       0.032700
     70 H21         10.4290    78.2140   121.2630 h1       288 LIG       0.032700
     71 H22         10.2110    78.3150   119.5330 h1       288 LIG       0.032700
     72 H23          7.3380    79.3220   123.0590 hc       288 LIG       0.050200
     73 H24          5.9990    78.3790   122.5260 hc       288 LIG       0.050200
     74 H25          4.4780    80.0900   122.9340 hc       288 LIG       0.045700
     75 H26          5.6840    80.5730   124.0840 hc       288 LIG       0.045700
     76 H27          4.8300    82.2700   122.0580 hc       288 LIG       0.062700
     77 H28          6.5050    82.3300   124.0540 hc       288 LIG       0.065700
     78 H29          8.2300    83.1390   121.7600 hc       288 LIG       0.038700
     79 H30          8.4880    81.7750   122.8210 hc       288 LIG       0.038700
     80 H31          8.5680    83.4010   123.4540 hc       288 LIG       0.038700
     81 H32          4.9360    84.0340   123.0930 h1       288 LIG       0.083700
     82 H33          7.5760    84.9470   123.8210 ho       288 LIG       0.406000
     83 H34          7.2530    84.6860   121.3480 h1       288 LIG       0.064700
     84 H35          7.7950    86.9350   121.7640 h2       288 LIG       0.080700
     85 H36          5.0510    86.9190   119.4280 h1       288 LIG       0.078700
     86 H37          5.6950    89.8330   119.5260 h1       288 LIG       0.108700
     87 H38          3.2400    88.3370   119.4730 ho       288 LIG       0.424000
     88 H39          4.2700    88.3120   121.6730 h1       288 LIG       0.103700
     89 H40          6.0970    91.1390   123.7920 hc       288 LIG       0.077033
     90 H41          5.0080    90.4850   124.9920 hc       288 LIG       0.077033
     91 H42          4.8200    92.1350   124.4490 hc       288 LIG       0.077033
     92 H43          7.0810    89.2950   121.7530 h1       288 LIG       0.100700
     93 H44          5.4460    87.7390   123.5260 ho       288 LIG       0.433000
     94 H45          6.2530    86.9250   117.3570 h1       288 LIG       0.047700
     95 H46          5.1980    88.3000   117.2800 h1       288 LIG       0.047700
     96 H47          8.4560    87.5950   114.7210 hc       288 LIG       0.044533
     97 H48          6.8910    87.2090   115.3950 hc       288 LIG       0.044533
     98 H49          8.3460    86.7070   116.2220 hc       288 LIG       0.044533
     99 H50          9.9370    89.2020   115.8300 hc       288 LIG       0.044533
    100 H51          9.7830    88.4230   117.3860 hc       288 LIG       0.044533
    101 H52          9.3840    90.1150   117.2140 hc       288 LIG       0.044533
    102 H53          7.8470    90.7490   115.3920 ha       288 LIG       0.157000
    103 H54          5.7310    88.7690   114.8540 ha       288 LIG       0.110000
    104 H55          5.8890    90.4090   114.1630 ha       288 LIG       0.110000
@<TRIPOS>BOND
     1    48    47 2   
     2    47    44 1   
     3    45    44 1   
     4    44    46 1   
     5    44    43 1   
     6    12    11 1   
     7    43    42 1   
     8    42    32 1   
     9    11    10 1   
    10    11    13 1   
    11    14    13 1   
    12    10     2 1   
    13    34    33 1   
    14    32    33 1   
    15    32    31 1   
    16    13    15 1   
    17    13     1 1   
    18    15    16 2   
    19    33    35 1   
    20    31    30 1   
    21     8     7 2   
    22     2     1 2   
    23     2     3 1   
    24    20    19 1   
    25     5     3 1   
    26     5     6 1   
    27     1    28 1   
    28    19    18 1   
    29    18    17 1   
    30    16    17 1   
    31    16    23 1   
    32    17    21 1   
    33     7     6 1   
    34     7     9 1   
    35     3     4 1   
    36    35    36 1   
    37    35    40 1   
    38    30    29 1   
    39    30    40 1   
    40    28    29 1   
    41    28    26 1   
    42    36    37 1   
    43    40    41 1   
    44    23    22 1   
    45    23    24 1   
    46    21    22 1   
    47    25    24 1   
    48    26    24 1   
    49    26    27 1   
    50    37    38 2   
    51    37    39 1   
    52     3    49 1   
    53     4    50 1   
    54     4    51 1   
    55     4    52 1   
    56     5    53 1   
    57     5    54 1   
    58     9    55 1   
    59     9    56 1   
    60     9    57 1   
    61    10    58 1   
    62    10    59 1   
    63    11    60 1   
    64    12    61 1   
    65    14    62 1   
    66    14    63 1   
    67    14    64 1   
    68    15    65 1   
    69    17    66 1   
    70    18    67 1   
    71    18    68 1   
    72    20    69 1   
    73    20    70 1   
    74    20    71 1   
    75    21    72 1   
    76    21    73 1   
    77    22    74 1   
    78    22    75 1   
    79    23    76 1   
    80    24    77 1   
    81    25    78 1   
    82    25    79 1   
    83    25    80 1   
    84    26    81 1   
    85    27    82 1   
    86    28    83 1   
    87    30    84 1   
    88    32    85 1   
    89    33    86 1   
    90    34    87 1   
    91    35    88 1   
    92    39    89 1   
    93    39    90 1   
    94    39    91 1   
    95    40    92 1   
    96    41    93 1   
    97    42    94 1   
    98    42    95 1   
    99    45    96 1   
   100    45    97 1   
   101    45    98 1   
   102    46    99 1   
   103    46   100 1   
   104    46   101 1   
   105    47   102 1   
   106    48   103 1   
   107    48   104 1   
@<TRIPOS>SUBSTRUCTURE
     1 LIG         1 TEMP              0 ****  ****    0 ROOT
