@<TRIPOS>MOLECULE
../2o98_L.pdb
 104 107 0 0 0
SMALL
GASTEIGER

@<TRIPOS>ATOM
      1  C1         5.4200   84.1480  120.5110 C.2   288  LIG288     -0.0268
      2  C4         4.0870   84.1870  120.2830 C.2   288  LIG288     -0.0584
      3  C11        3.0490   84.7990  121.1950 C.3   288  LIG288      0.0120
      4  C18        2.1420   83.7030  121.7610 C.3   288  LIG288     -0.0556
      5  C17        2.1960   85.8550  120.4940 C.3   288  LIG288      0.0987
      6  O24        1.5460   86.6490  121.5040 O.3   288  LIG288     -0.4642
      7  C31        0.4840   87.5860  121.1910 C.2   288  LIG288      0.3040
      8  O37        0.2040   87.7540  120.0060 O.2   288  LIG288     -0.2512
      9  C36       -0.2320   88.2910  122.3000 C.3   288  LIG288      0.0332
     10  C10        3.7040   83.5040  118.9810 C.3   288  LIG288     -0.0038
     11  C6         5.0770   83.4230  118.3240 C.3   288  LIG288      0.0715
     12  O13        5.2610   82.3270  117.4270 O.3   288  LIG288     -0.3903
     13  C2         6.1080   83.3750  119.4320 C.3   288  LIG288      0.0361
     14  C7         7.3370   84.1150  118.9440 C.3   288  LIG288     -0.0499
     15  C5         6.4340   81.9260  119.7850 C.2   288  LIG288     -0.0718
     16  C12        6.3060   81.2240  120.9500 C.2   288  LIG288     -0.0639
     17  C20        6.7320   79.7760  121.0540 C.3   288  LIG288      0.0038
     18  C27        8.2040   79.5120  120.7370 C.3   288  LIG288      0.0538
     19  O32        8.4890   78.1040  120.6190 O.3   288  LIG288     -0.3824
     20  C38        9.8750   77.8370  120.4290 C.3   288  LIG288      0.0365
     21  C26        6.4350   79.3550  122.4860 C.3   288  LIG288     -0.0439
     22  C25        5.4920   80.4120  123.0440 C.3   288  LIG288     -0.0456
     23  C19        5.7170   81.7030  122.2520 C.3   288  LIG288     -0.0145
     24  C15        6.5700   82.7150  123.0580 C.3   288  LIG288     -0.0085
     25  C23        8.0790   82.7610  122.7500 C.3   288  LIG288     -0.0594
     26  C9         5.9960   84.1170  122.9690 C.3   288  LIG288      0.0884
     27  O16        6.6210   84.9070  123.9840 O.3   288  LIG288     -0.3886
     28  C3         6.2260   84.7960  121.6290 C.3   288  LIG288      0.1100
     29  O8         5.9020   86.1930  121.7730 O.3   288  LIG288     -0.3385
     30  C14        6.8370   87.2300  121.3900 C.3   288  LIG288      0.1897
     31  O22        6.9500   87.4100  119.9640 O.3   288  LIG288     -0.3404
     32  C30        5.7400   87.7220  119.2710 C.3   288  LIG288      0.1144
     33  C33        5.0930   88.9920  119.8010 C.3   288  LIG288      0.1229
     34  O39        3.7750   89.1050  119.2160 O.3   288  LIG288     -0.3854
     35  C28        5.0140   89.0010  121.3310 C.3   288  LIG288      0.1616
     36  O34        4.6980   90.3410  121.7110 O.3   288  LIG288     -0.4560
     37  C40        4.1510   90.6710  123.0430 C.2   288  LIG288      0.3044
     38  O43        2.9350   90.5890  123.2150 O.2   288  LIG288     -0.2512
     39  C42        5.0890   91.1430  124.1520 C.3   288  LIG288      0.0332
     40  C21        6.3360   88.5570  121.9650 C.3   288  LIG288      0.1451
     41  O29        6.1250   88.4140  123.3680 O.3   288  LIG288     -0.3830
     42  C35        6.0400   87.8800  117.7890 C.3   288  LIG288      0.0776
     43  O41        7.1800   88.7380  117.6610 O.3   288  LIG288     -0.3673
     44  C44        7.9110   88.7820  116.4010 C.3   288  LIG288      0.0819
     45  C47        7.9000   87.4770  115.6280 C.3   288  LIG288     -0.0325
     46  C46        9.3640   89.1590  116.7330 C.3   288  LIG288     -0.0325
     47  C45        7.3490   89.8490  115.4780 C.2   288  LIG288     -0.0602
     48  C48        6.2420   89.6620  114.7810 C.2   288  LIG288     -0.1000
     49 H           3.5782   85.2892  121.9853 H     288  LIG288      0.0376
     50 H           1.6203   83.2227  120.9597 H     288  LIG288      0.0236
     51 H           1.4355   84.1383  122.4364 H     288  LIG288      0.0236
     52 H           2.7364   82.9821  122.2824 H     288  LIG288      0.0236
     53 H           1.4614   85.3781  119.8794 H     288  LIG288      0.0703
     54 H           2.8095   86.4746  119.8739 H     288  LIG288      0.0703
     55 H          -0.9778   88.9384  121.8882 H     288  LIG288      0.0342
     56 H           0.4684   88.8686  122.8663 H     288  LIG288      0.0342
     57 H          -0.6985   87.5701  122.9384 H     288  LIG288      0.0342
     58 H           3.2838   82.5342  119.1479 H     288  LIG288      0.0336
     59 H           2.9541   84.0071  118.4070 H     288  LIG288      0.0336
     60 H           5.1826   84.2884  117.7037 H     288  LIG288      0.0608
     61 H           5.1799   81.4926  117.9150 H     288  LIG288      0.2098
     62 H           7.8136   83.5457  118.1735 H     288  LIG288      0.0242
     63 H           8.0172   84.2527  119.7584 H     288  LIG288      0.0242
     64 H           7.0480   85.0692  118.5555 H     288  LIG288      0.0242
     65 H           6.8213   81.3772  119.0015 H     288  LIG288      0.0581
     66 H           6.1944   79.2145  120.3188 H     288  LIG288      0.0368
     67 H           8.4495   79.9924  119.8129 H     288  LIG288      0.0565
     68 H           8.7897   79.9003  121.5439 H     288  LIG288      0.0565
     69 H          10.0270   76.7809  120.3483 H     288  LIG288      0.0523
     70 H          10.4286   78.2143  121.2634 H     288  LIG288      0.0523
     71 H          10.2107   78.3152  119.5326 H     288  LIG288      0.0523
     72 H           7.3379   79.3218  123.0591 H     288  LIG288      0.0272
     73 H           5.9991   78.3787  122.5263 H     288  LIG288      0.0272
     74 H           4.4777   80.0895  122.9344 H     288  LIG288      0.0271
     75 H           5.6836   80.5729  124.0843 H     288  LIG288      0.0271
     76 H           4.8304   82.2699  122.0584 H     288  LIG288      0.0349
     77 H           6.5052   82.3303  124.0543 H     288  LIG288      0.0330
     78 H           8.2297   83.1389  121.7604 H     288  LIG288      0.0233
     79 H           8.4878   81.7747  122.8213 H     288  LIG288      0.0233
     80 H           8.5675   83.4013  123.4545 H     288  LIG288      0.0233
     81 H           4.9365   84.0344  123.0932 H     288  LIG288      0.0625
     82 H           7.5763   84.9465  123.8206 H     288  LIG288      0.2099
     83 H           7.2526   84.6860  121.3483 H     288  LIG288      0.0670
     84 H           7.7952   86.9348  121.7636 H     288  LIG288      0.0938
     85 H           5.0507   86.9189  119.4284 H     288  LIG288      0.0647
     86 H           5.6946   89.8330  119.5259 H     288  LIG288      0.0658
     87 H           3.2404   88.3374  119.4727 H     288  LIG288      0.2101
     88 H           4.2703   88.3118  121.6729 H     288  LIG288      0.0789
     89 H           6.0967   91.1395  123.7923 H     288  LIG288      0.0342
     90 H           5.0078   90.4851  124.9919 H     288  LIG288      0.0342
     91 H           4.8197   92.1351  124.4487 H     288  LIG288      0.0342
     92 H           7.0810   89.2953  121.7532 H     288  LIG288      0.0682
     93 H           5.4461   87.7394  123.5258 H     288  LIG288      0.2102
     94 H           6.2534   86.9246  117.3571 H     288  LIG288      0.0587
     95 H           5.1976   88.3001  117.2803 H     288  LIG288      0.0587
     96 H           8.4558   87.5948  114.7213 H     288  LIG288      0.0260
     97 H           6.8906   87.2088  115.3953 H     288  LIG288      0.0260
     98 H           8.3458   86.7068  116.2221 H     288  LIG288      0.0260
     99 H           9.9365   89.2020  115.8301 H     288  LIG288      0.0260
    100 H           9.7832   88.4226  117.3864 H     288  LIG288      0.0260
    101 H           9.3836   90.1148  117.2136 H     288  LIG288      0.0260
    102 H           7.8474   90.7486  115.3924 H     288  LIG288      0.0594
    103 H           5.7307   88.7686  114.8544 H     288  LIG288      0.0533
    104 H           5.8887   90.4094  114.1632 H     288  LIG288      0.0533
@<TRIPOS>BOND
     1    48    47    2
     2    47    44    1
     3    45    44    1
     4    44    46    1
     5    44    43    1
     6    12    11    1
     7    43    42    1
     8    42    32    1
     9    11    10    1
    10    11    13    1
    11    14    13    1
    12    10     2    1
    13    34    33    1
    14    32    33    1
    15    32    31    1
    16    13    15    1
    17    13     1    1
    18    15    16    2
    19    33    35    1
    20    31    30    1
    21     8     7    2
    22     2     1    2
    23     2     3    1
    24    20    19    1
    25     5     3    1
    26     5     6    1
    27     1    28    1
    28    19    18    1
    29    18    17    1
    30    16    17    1
    31    16    23    1
    32    17    21    1
    33     7     6    1
    34     7     9    1
    35     3     4    1
    36    35    36    1
    37    35    40    1
    38    30    29    1
    39    30    40    1
    40    28    29    1
    41    28    26    1
    42    36    37    1
    43    40    41    1
    44    23    22    1
    45    23    24    1
    46    21    22    1
    47    25    24    1
    48    26    24    1
    49    26    27    1
    50    37    38    2
    51    37    39    1
    52     3    49    1
    53     4    50    1
    54     4    51    1
    55     4    52    1
    56     5    53    1
    57     5    54    1
    58     9    55    1
    59     9    56    1
    60     9    57    1
    61    10    58    1
    62    10    59    1
    63    11    60    1
    64    12    61    1
    65    14    62    1
    66    14    63    1
    67    14    64    1
    68    15    65    1
    69    17    66    1
    70    18    67    1
    71    18    68    1
    72    20    69    1
    73    20    70    1
    74    20    71    1
    75    21    72    1
    76    21    73    1
    77    22    74    1
    78    22    75    1
    79    23    76    1
    80    24    77    1
    81    25    78    1
    82    25    79    1
    83    25    80    1
    84    26    81    1
    85    27    82    1
    86    28    83    1
    87    30    84    1
    88    32    85    1
    89    33    86    1
    90    34    87    1
    91    35    88    1
    92    39    89    1
    93    39    90    1
    94    39    91    1
    95    40    92    1
    96    41    93    1
    97    42    94    1
    98    42    95    1
    99    45    96    1
   100    45    97    1
   101    45    98    1
   102    46    99    1
   103    46   100    1
   104    46   101    1
   105    47   102    1
   106    48   103    1
   107    48   104    1
