@<TRIPOS>MOLECULE
LIG
   56    57     1     0     0
SMALL
bcc


@<TRIPOS>ATOM
      1 N1          74.6060    19.6400    30.2460 n7       529 LIG      -0.919100
      2 C2          76.2960    17.8200    27.8390 ca       529 LIG      -0.132000
      3 N3          83.7300    13.4950    29.9140 n7       529 LIG      -0.919100
      4 C4          78.6280    17.0770    28.0670 cp       529 LIG      -0.040000
      5 O5          73.3500    18.4090    32.1270 o        529 LIG      -0.656300
      6 C6          78.0000    19.4230    28.4160 ca       529 LIG      -0.132000
      7 C7          81.6880    13.9780    27.8160 ca       529 LIG      -0.077300
      8 C8          76.6470    19.1560    28.1300 ca       529 LIG      -0.077300
      9 O9          84.9680    14.6120    31.8630 o        529 LIG      -0.656300
     10 S10         84.2060    14.9470    30.6400 s6       529 LIG       1.467900
     11 O11         84.7590    15.8170    29.5730 o        529 LIG      -0.656300
     12 S12         74.1530    18.1470    30.9120 s6       529 LIG       1.467900
     13 C13         77.2630    16.8070    27.8060 ca       529 LIG      -0.116500
     14 O14         73.6540    17.2970    29.8040 o        529 LIG      -0.656300
     15 C15         78.9680    18.4110    28.3940 ca       529 LIG      -0.116500
     16 C16         80.3290    13.6500    27.9910 ca       529 LIG      -0.132000
     17 C17         79.3400    14.6380    28.0740 ca       529 LIG      -0.116500
     18 C18         79.6660    16.0120    27.9810 cp       529 LIG      -0.040000
     19 C19         81.0300    16.3360    27.7900 ca       529 LIG      -0.116500
     20 C20         82.0180    15.3460    27.7100 ca       529 LIG      -0.132000
     21 C21         82.7430    12.8920    27.6970 c3       529 LIG      -0.042400
     22 C22         75.6290    20.2840    28.0670 c3       529 LIG      -0.042400
     23 C23         74.3420    19.9470    28.8420 c3       529 LIG       0.228800
     24 C24         75.2980    20.6490    26.6080 c3       529 LIG      -0.089100
     25 C25         83.1090    12.6350    26.2220 c3       529 LIG      -0.089100
     26 C26         84.0080    13.2220    28.5070 c3       529 LIG       0.228800
     27 C27         82.6410    15.6740    31.1790 c3       529 LIG      -0.373300
     28 C28         75.7400    17.4720    31.4490 c3       529 LIG      -0.373300
     29 H           74.1320    20.3580    30.7940 hn       529 LIG       0.448800
     30 H1          75.3090    17.5850    27.6470 ha       529 LIG       0.137500
     31 H2          84.1750    12.7470    30.4460 hn       529 LIG       0.448800
     32 H3          78.2850    20.3870    28.6470 ha       529 LIG       0.137500
     33 H4          76.9740    15.8410    27.5860 ha       529 LIG       0.139000
     34 H5          79.9480    18.6430    28.6210 ha       529 LIG       0.139000
     35 H6          80.0560    12.6570    28.0600 ha       529 LIG       0.137500
     36 H7          78.3550    14.3590    28.2050 ha       529 LIG       0.139000
     37 H8          81.3040    17.3280    27.7070 ha       529 LIG       0.139000
     38 H9          83.0030    15.6210    27.5710 ha       529 LIG       0.137500
     39 H10         82.3160    12.0010    28.1080 hc       529 LIG       0.056700
     40 H11         76.0770    21.1330    28.5400 hc       529 LIG       0.056700
     41 H12         73.8770    19.0980    28.3850 h1       529 LIG       0.059700
     42 H13         73.7050    20.8060    28.8080 h1       529 LIG       0.059700
     43 H14         74.8490    19.8080    26.1230 hc       529 LIG       0.043367
     44 H15         76.1970    20.9190    26.0950 hc       529 LIG       0.043367
     45 H16         74.6180    21.4740    26.5930 hc       529 LIG       0.043367
     46 H17         83.5370    13.5210    25.8010 hc       529 LIG       0.043367
     47 H18         82.2270    12.3710    25.6770 hc       529 LIG       0.043367
     48 H19         83.8170    11.8350    26.1640 hc       529 LIG       0.043367
     49 H20         84.4720    14.0850    28.0780 h1       529 LIG       0.059700
     50 H21         84.6460    12.3640    28.4680 h1       529 LIG       0.059700
     51 H22         82.0540    15.9330    30.3230 h1       529 LIG       0.116367
     52 H23         82.8360    16.5530    31.7570 h1       529 LIG       0.116367
     53 H24         82.1060    14.9660    31.7770 h1       529 LIG       0.116367
     54 H25         76.3500    17.2700    30.5930 h1       529 LIG       0.116367
     55 H26         75.5760    16.5650    31.9930 h1       529 LIG       0.116367
     56 H27         76.2340    18.1810    32.0790 h1       529 LIG       0.116367
@<TRIPOS>BOND
     1    25    21 1   
     2    24    22 1   
     3    21     7 1   
     4    21    26 1   
     5    20    19 ar  
     6    20     7 ar  
     7    19    18 ar  
     8    13     2 ar  
     9    13     4 ar  
    10     7    16 ar  
    11     2     8 ar  
    12    18     4 1   
    13    18    17 ar  
    14    16    17 ar  
    15    22     8 1   
    16    22    23 1   
    17     4    15 ar  
    18     8     6 ar  
    19    15     6 ar  
    20    26     3 1   
    21    23     1 1   
    22    11    10 2   
    23    14    12 2   
    24     3    10 1   
    25     1    12 1   
    26    10    27 1   
    27    10     9 2   
    28    12    28 1   
    29    12     5 2   
    30     1    29 1   
    31     2    30 1   
    32     3    31 1   
    33     6    32 1   
    34    13    33 1   
    35    15    34 1   
    36    16    35 1   
    37    17    36 1   
    38    19    37 1   
    39    20    38 1   
    40    21    39 1   
    41    22    40 1   
    42    23    41 1   
    43    23    42 1   
    44    24    43 1   
    45    24    44 1   
    46    24    45 1   
    47    25    46 1   
    48    25    47 1   
    49    25    48 1   
    50    26    49 1   
    51    26    50 1   
    52    27    51 1   
    53    27    52 1   
    54    27    53 1   
    55    28    54 1   
    56    28    55 1   
    57    28    56 1   
@<TRIPOS>SUBSTRUCTURE
     1 LIG         1 TEMP              0 ****  ****    0 ROOT
