@<TRIPOS>MOLECULE
../3bbr_L.pdb
 56 57 0 0 0
SMALL
GASTEIGER

@<TRIPOS>ATOM
      1  N1        74.6060   19.6400   30.2460 N.3   529  LIG529     -0.1942
      2  C2        76.2960   17.8200   27.8390 C.ar  529  LIG529     -0.0577
      3  N3        83.7300   13.4950   29.9140 N.3   529  LIG529     -0.1942
      4  C4        78.6280   17.0770   28.0670 C.ar  529  LIG529     -0.0179
      5  O5        73.3500   18.4090   32.1270 O.2   529  LIG529     -0.1585
      6  C6        78.0000   19.4230   28.4160 C.ar  529  LIG529     -0.0577
      7  C7        81.6880   13.9780   27.8160 C.ar  529  LIG529     -0.0432
      8  C8        76.6470   19.1560   28.1300 C.ar  529  LIG529     -0.0432
      9  O9        84.9680   14.6120   31.8630 O.2   529  LIG529     -0.1585
     10  S10       84.2060   14.9470   30.6400 S.O2  529  LIG529      0.0266
     11  O11       84.7590   15.8170   29.5730 O.2   529  LIG529     -0.1585
     12  S12       74.1530   18.1470   30.9120 S.O2  529  LIG529      0.0266
     13  C13       77.2630   16.8070   27.8060 C.ar  529  LIG529     -0.0538
     14  O14       73.6540   17.2970   29.8040 O.2   529  LIG529     -0.1585
     15  C15       78.9680   18.4110   28.3940 C.ar  529  LIG529     -0.0538
     16  C16       80.3290   13.6500   27.9910 C.ar  529  LIG529     -0.0577
     17  C17       79.3400   14.6380   28.0740 C.ar  529  LIG529     -0.0538
     18  C18       79.6660   16.0120   27.9810 C.ar  529  LIG529     -0.0179
     19  C19       81.0300   16.3360   27.7900 C.ar  529  LIG529     -0.0538
     20  C20       82.0180   15.3460   27.7100 C.ar  529  LIG529     -0.0577
     21  C21       82.7430   12.8920   27.6970 C.3   529  LIG529     -0.0045
     22  C22       75.6290   20.2840   28.0670 C.3   529  LIG529     -0.0045
     23  C23       74.3420   19.9470   28.8420 C.3   529  LIG529      0.0236
     24  C24       75.2980   20.6490   26.6080 C.3   529  LIG529     -0.0572
     25  C25       83.1090   12.6350   26.2220 C.3   529  LIG529     -0.0572
     26  C26       84.0080   13.2220   28.5070 C.3   529  LIG529      0.0236
     27  C27       82.6410   15.6740   31.1790 C.3   529  LIG529      0.0705
     28  C28       75.7400   17.4720   31.4490 C.3   529  LIG529      0.0705
     29 H          74.1325   20.3581   30.7942 H     529  LIG529      0.1476
     30 H          75.3095   17.5854   27.6472 H     529  LIG529      0.0621
     31 H          84.1748   12.7471   30.4462 H     529  LIG529      0.1476
     32 H          78.2850   20.3875   28.6473 H     529  LIG529      0.0621
     33 H          76.9735   15.8411   27.5862 H     529  LIG529      0.0624
     34 H          79.9478   18.6427   28.6206 H     529  LIG529      0.0624
     35 H          80.0557   12.6572   28.0597 H     529  LIG529      0.0621
     36 H          78.3552   14.3589   28.2054 H     529  LIG529      0.0624
     37 H          81.3042   17.3275   27.7075 H     529  LIG529      0.0624
     38 H          83.0028   15.6215   27.5713 H     529  LIG529      0.0621
     39 H          82.3163   12.0010   28.1080 H     529  LIG529      0.0359
     40 H          76.0767   21.1332   28.5396 H     529  LIG529      0.0359
     41 H          73.8774   19.0982   28.3854 H     529  LIG529      0.0447
     42 H          73.7046   20.8058   28.8083 H     529  LIG529      0.0447
     43 H          74.8491   19.8075   26.1229 H     529  LIG529      0.0236
     44 H          76.1974   20.9185   26.0949 H     529  LIG529      0.0236
     45 H          74.6175   21.4745   26.5925 H     529  LIG529      0.0236
     46 H          83.5369   13.5208   25.8012 H     529  LIG529      0.0236
     47 H          82.2272   12.3710   25.6765 H     529  LIG529      0.0236
     48 H          83.8170   11.8348   26.1644 H     529  LIG529      0.0236
     49 H          84.4722   14.0851   28.0776 H     529  LIG529      0.0447
     50 H          84.6459   12.3638   28.4677 H     529  LIG529      0.0447
     51 H          82.0543   15.9330   30.3225 H     529  LIG529      0.0479
     52 H          82.8364   16.5532   31.7566 H     529  LIG529      0.0479
     53 H          82.1060   14.9660   31.7769 H     529  LIG529      0.0479
     54 H          76.3495   17.2696   30.5931 H     529  LIG529      0.0479
     55 H          75.5762   16.5651   31.9927 H     529  LIG529      0.0479
     56 H          76.2344   18.1814   32.0792 H     529  LIG529      0.0479
@<TRIPOS>BOND
     1    25    21    1
     2    24    22    1
     3    21     7    1
     4    21    26    1
     5    20    19   ar
     6    20     7   ar
     7    19    18   ar
     8    13     2   ar
     9    13     4   ar
    10     7    16   ar
    11     2     8   ar
    12    18     4    1
    13    18    17   ar
    14    16    17   ar
    15    22     8    1
    16    22    23    1
    17     4    15   ar
    18     8     6   ar
    19    15     6   ar
    20    26     3    1
    21    23     1    1
    22    11    10    2
    23    14    12    2
    24     3    10    1
    25     1    12    1
    26    10    27    1
    27    10     9    2
    28    12    28    1
    29    12     5    2
    30     1    29    1
    31     2    30    1
    32     3    31    1
    33     6    32    1
    34    13    33    1
    35    15    34    1
    36    16    35    1
    37    17    36    1
    38    19    37    1
    39    20    38    1
    40    21    39    1
    41    22    40    1
    42    23    41    1
    43    23    42    1
    44    24    43    1
    45    24    44    1
    46    24    45    1
    47    25    46    1
    48    25    47    1
    49    25    48    1
    50    26    49    1
    51    26    50    1
    52    27    51    1
    53    27    52    1
    54    27    53    1
    55    28    54    1
    56    28    55    1
    57    28    56    1
