# created with PyMOL 2.5.5
@<TRIPOS>MOLECULE
../3m50_L.pdb
46 46 2                 
SMALL
USER_CHARGES
@<TRIPOS>ATOM
1	   C	-2.120	-36.931	8.633	C.2	1	ACE0	0.248	
2	   N	-1.401	-36.459	9.690	N.pl3	2	UNL1	-0.305	
3	   N	-0.291	-38.943	10.036	N.4	2	UNL1	0.223	
4	  CA	-1.238	-35.035	9.893	C.3	2	UNL1	0.063	
5	   C	-0.552	-34.337	8.713	C.2	2	UNL1	0.062	
6	   C	-0.753	-39.132	8.652	C.3	2	UNL1	0.015	
7	   C	-2.133	-38.473	8.487	C.3	2	UNL1	0.174	
8	   C	0.260	-38.544	7.645	C.3	2	UNL1	0.018	
9	   C	1.671	-39.019	7.901	C.2	2	UNL1	-0.042	
10	   C	2.091	-40.312	7.521	C.2	2	UNL1	-0.058	
11	   C	2.581	-38.191	8.592	C.2	2	UNL1	-0.058	
12	   C	3.384	-40.766	7.823	C.2	2	UNL1	-0.062	
13	   C	3.877	-38.642	8.895	C.2	2	UNL1	-0.062	
14	   C	4.282	-39.932	8.512	C.2	2	UNL1	-0.062	
15	   O	0.438	-35.099	8.157	O.co2	2	UNL1	-0.548	
16	   O	-2.992	-39.083	9.452	O.3	2	UNL1	-0.378	
17	   O	-2.751	-36.206	7.856	O.2	2	UNL1	-0.273	
18	  CB	-0.494	-34.796	11.225	C.3	2	UNL1	-0.027	
19	  CG	-0.154	-33.321	11.547	C.3	2	UNL1	-0.045	
20	 CD1	1.246	-32.936	11.040	C.3	2	UNL1	-0.063	
21	 CD2	-0.273	-33.054	13.055	C.3	2	UNL1	-0.063	
22	 OXT	-0.797	-33.210	8.336	O.co2	2	UNL1	-0.548	
23	   H	-0.989	-37.092	10.321	 H	2	UNL1	0.149	
24	   H	-2.210	-34.590	9.949	 H	2	UNL1	0.056	
25	   H	0.424	-35.346	11.193	 H	2	UNL1	0.029	
26	   H	-1.164	-35.116	11.995	 H	2	UNL1	0.029	
27	   H	-0.864	-32.708	11.033	 H	2	UNL1	0.030	
28	   H	-3.879	-38.697	9.385	 H	2	UNL1	0.211	
29	   H	0.624	-39.378	10.151	 H	2	UNL1	0.200	
30	   H	-0.956	-39.374	10.678	 H	2	UNL1	0.200	
31	   H	-0.221	-37.946	10.238	 H	2	UNL1	0.200	
32	   H	-0.834	-40.180	8.449	 H	2	UNL1	0.088	
33	   H	-2.480	-38.633	7.488	 H	2	UNL1	0.075	
34	   H	-0.027	-38.839	6.657	 H	2	UNL1	0.037	
35	   H	0.250	-37.480	7.756	 H	2	UNL1	0.037	
36	   H	1.439	-40.931	7.015	 H	2	UNL1	0.062	
37	   H	2.291	-37.243	8.878	 H	2	UNL1	0.062	
38	   H	3.676	-41.714	7.539	 H	2	UNL1	0.062	
39	   H	4.532	-38.025	9.400	 H	2	UNL1	0.062	
40	   H	5.233	-40.265	8.735	 H	2	UNL1	0.062	
41	   H	0.433	-33.661	13.582	 H	2	UNL1	0.023	
42	   H	-1.263	-33.293	13.382	 H	2	UNL1	0.023	
43	   H	-0.072	-32.022	13.251	 H	2	UNL1	0.023	
44	   H	1.982	-33.533	11.537	 H	2	UNL1	0.023	
45	   H	1.428	-31.902	11.245	 H	2	UNL1	0.023	
46	   H	1.302	-33.105	9.985	 H	2	UNL1	0.023	
@<TRIPOS>BOND
1 1 2 1
2 2 4 1
3 2 23 1
4 3 29 1
5 3 30 1
6 3 31 1
7 4 18 1
8 4 24 1
9 4 5 1
10 3 6 1
11 6 32 1
12 1 7 1
13 6 7 1
14 7 16 1
15 7 33 1
16 6 8 1
17 8 9 1
18 8 34 1
19 8 35 1
20 9 11 ar
21 9 10 ar
22 10 12 ar
23 10 36 1
24 11 13 ar
25 11 37 1
26 12 14 ar
27 12 38 1
28 13 39 1
29 13 14 ar
30 14 40 1
31 5 15 1
32 16 28 1
33 1 17 2
34 18 19 1
35 18 25 1
36 18 26 1
37 19 21 1
38 19 27 1
39 19 20 1
40 20 44 1
41 20 45 1
42 20 46 1
43 21 41 1
44 21 42 1
45 21 43 1
46 5 22 2
@<TRIPOS>SUBSTRUCTURE
1	ACE0	1	GROUP	1 ****	ACE
2	UNL1	2	GROUP	1 ****	UNL
