@<TRIPOS>MOLECULE
LIG
   46    46     1     0     0
SMALL
bcc


@<TRIPOS>ATOM
      1 C           -2.1200   -36.9310     8.6330 c          1 LIG       0.656300
      2 N           -1.4010   -36.4590     9.6900 ns         2 LIG      -0.555900
      3 N1          -0.2910   -38.9430    10.0360 nz         2 LIG      -1.143600
      4 CA          -1.2380   -35.0350     9.8930 c3         2 LIG       0.016700
      5 C           -0.5520   -34.3370     8.7130 c          2 LIG       0.855600
      6 C1          -0.7530   -39.1320     8.6520 c3         2 LIG       0.181500
      7 C2          -2.1330   -38.4730     8.4870 c3         2 LIG       0.071100
      8 C3           0.2600   -38.5440     7.6450 c3         2 LIG      -0.046100
      9 C4           1.6710   -39.0190     7.9010 ca         2 LIG      -0.096300
     10 C5           2.0910   -40.3120     7.5210 ca         2 LIG      -0.126500
     11 C6           2.5810   -38.1910     8.5920 ca         2 LIG      -0.126500
     12 C7           3.3840   -40.7660     7.8230 ca         2 LIG      -0.129500
     13 C8           3.8770   -38.6420     8.8950 ca         2 LIG      -0.129500
     14 C9           4.2820   -39.9320     8.5120 ca         2 LIG      -0.128000
     15 O            0.4380   -35.0990     8.1570 o          2 LIG      -0.563300
     16 O1          -2.9920   -39.0830     9.4520 oh         2 LIG      -0.594800
     17 O2          -2.7510   -36.2060     7.8560 o          2 LIG      -0.616300
     18 CB          -0.4940   -34.7960    11.2250 c3         2 LIG      -0.083400
     19 CG          -0.1540   -33.3210    11.5470 c3         2 LIG      -0.073700
     20 CD1          1.2460   -32.9360    11.0400 c3         2 LIG      -0.093100
     21 CD2         -0.2730   -33.0540    13.0550 c3         2 LIG      -0.093100
     22 OXT         -0.7970   -33.2100     8.3360 o          2 LIG      -0.563300
     23 H           -0.9890   -37.0920    10.3210 hn         2 LIG       0.325500
     24 H1          -2.2100   -34.5900     9.9490 h1         2 LIG       0.119700
     25 H2           0.4240   -35.3460    11.1930 hc         2 LIG       0.053700
     26 H3          -1.1640   -35.1160    11.9950 hc         2 LIG       0.053700
     27 H4          -0.8640   -32.7080    11.0330 hc         2 LIG       0.071700
     28 H5          -3.8790   -38.6970     9.3850 ho         2 LIG       0.415000
     29 H6           0.6240   -39.3780    10.1510 hn         2 LIG       0.392800
     30 H7          -0.9560   -39.3740    10.6780 hn         2 LIG       0.392800
     31 H8          -0.2210   -37.9460    10.2380 hn         2 LIG       0.392800
     32 H9          -0.8340   -40.1800     8.4490 hx         2 LIG       0.038700
     33 H10         -2.4800   -38.6330     7.4880 h1         2 LIG       0.075700
     34 H11         -0.0270   -38.8390     6.6570 hc         2 LIG       0.069200
     35 H12          0.2500   -37.4800     7.7560 hc         2 LIG       0.069200
     36 H13          1.4390   -40.9310     7.0150 ha         2 LIG       0.141000
     37 H14          2.2910   -37.2430     8.8780 ha         2 LIG       0.141000
     38 H15          3.6760   -41.7140     7.5390 ha         2 LIG       0.134500
     39 H16          4.5320   -38.0250     9.4000 ha         2 LIG       0.134500
     40 H17          5.2330   -40.2650     8.7350 ha         2 LIG       0.133000
     41 H18          0.4330   -33.6610    13.5820 hc         2 LIG       0.038200
     42 H19         -1.2630   -33.2930    13.3820 hc         2 LIG       0.038200
     43 H20         -0.0720   -32.0220    13.2510 hc         2 LIG       0.038200
     44 H21          1.9820   -33.5330    11.5370 hc         2 LIG       0.038200
     45 H22          1.4280   -31.9020    11.2450 hc         2 LIG       0.038200
     46 H23          1.3020   -33.1050     9.9850 hc         2 LIG       0.038200
@<TRIPOS>BOND
     1     1     2 1   
     2     2     4 1   
     3     2    23 1   
     4     3    29 1   
     5     3    30 1   
     6     3    31 1   
     7     4    18 1   
     8     4    24 1   
     9     4     5 1   
    10     3     6 1   
    11     6    32 1   
    12     1     7 1   
    13     6     7 1   
    14     7    16 1   
    15     7    33 1   
    16     6     8 1   
    17     8     9 1   
    18     8    34 1   
    19     8    35 1   
    20     9    11 ar  
    21     9    10 ar  
    22    10    12 ar  
    23    10    36 1   
    24    11    13 ar  
    25    11    37 1   
    26    12    14 ar  
    27    12    38 1   
    28    13    39 1   
    29    13    14 ar  
    30    14    40 1   
    31     5    15 1   
    32    16    28 1   
    33     1    17 1   
    34    18    19 1   
    35    18    25 1   
    36    18    26 1   
    37    19    21 1   
    38    19    27 1   
    39    19    20 1   
    40    20    44 1   
    41    20    45 1   
    42    20    46 1   
    43    21    41 1   
    44    21    42 1   
    45    21    43 1   
    46     5    22 1   
@<TRIPOS>SUBSTRUCTURE
     1 LIG         1 TEMP              0 ****  ****    0 ROOT
