@<TRIPOS>MOLECULE
../3m50_L.pdb
 46 46 0 0 0
SMALL
GASTEIGER

@<TRIPOS>ATOM
      1 C          -0.5520  -34.3370    8.7130 C.2     1  UNL1        0.0620
      2 N          -1.4010  -36.4590    9.6900 N.am    1  UNL1       -0.3050
      3 O           0.4380  -35.0990    8.1570 O.co2   1  UNL1       -0.5479
      4 CA         -1.2380  -35.0350    9.8930 C.3     1  UNL1        0.0629
      5 CB         -0.4940  -34.7960   11.2250 C.3     1  UNL1       -0.0269
      6 CG         -0.1540  -33.3210   11.5470 C.3     1  UNL1       -0.0447
      7 O          -2.9920  -39.0830    9.4520 O.3     1  UNL1       -0.3776
      8 O          -2.7510  -36.2060    7.8560 O.2     1  UNL1       -0.2727
      9 N          -0.2910  -38.9430   10.0360 N.4     1  UNL1        0.2232
     10 C          -0.7530  -39.1320    8.6520 C.3     1  UNL1        0.0149
     11 C          -2.1330  -38.4730    8.4870 C.3     1  UNL1        0.1736
     12 C           0.2600  -38.5440    7.6450 C.3     1  UNL1        0.0183
     13 C          -2.1200  -36.9310    8.6330 C.2     0  ACE0        0.2478
     14 C           1.6710  -39.0190    7.9010 C.ar    1  UNL1       -0.0420
     15 C           2.0910  -40.3120    7.5210 C.ar    1  UNL1       -0.0584
     16 C           2.5810  -38.1910    8.5920 C.ar    1  UNL1       -0.0584
     17 C           3.3840  -40.7660    7.8230 C.ar    1  UNL1       -0.0615
     18 C           3.8770  -38.6420    8.8950 C.ar    1  UNL1       -0.0615
     19 C           4.2820  -39.9320    8.5120 C.ar    1  UNL1       -0.0617
     20 CD2        -0.2730  -33.0540   13.0550 C.3     1  UNL1       -0.0626
     21 CD1         1.2460  -32.9360   11.0400 C.3     1  UNL1       -0.0626
     22 OXT        -0.7970  -33.2100    8.3360 O.co2   1  UNL1       -0.5479
     23 H          -0.9887  -37.0921   10.3212 H       1  UNL1        0.1494
     24 H          -2.2096  -34.5905    9.9494 H       1  UNL1        0.0560
     25 H           0.4235  -35.3456   11.1925 H       1  UNL1        0.0289
     26 H          -1.1639  -35.1163   11.9954 H       1  UNL1        0.0289
     27 H          -0.8644  -32.7081   11.0326 H       1  UNL1        0.0296
     28 H          -3.8793  -38.6967    9.3851 H       1  UNL1        0.2107
     29 H           0.6242  -39.3782   10.1513 H       1  UNL1        0.1998
     30 H          -0.9559  -39.3741   10.6783 H       1  UNL1        0.1998
     31 H          -0.2211  -37.9456   10.2379 H       1  UNL1        0.1998
     32 H          -0.8342  -40.1795    8.4492 H       1  UNL1        0.0884
     33 H          -2.4799  -38.6327    7.4875 H       1  UNL1        0.0748
     34 H          -0.0275  -38.8385    6.6573 H       1  UNL1        0.0369
     35 H           0.2495  -37.4799    7.7565 H       1  UNL1        0.0369
     36 H           1.4389  -40.9312    7.0147 H       1  UNL1        0.0620
     37 H           2.2913  -37.2428    8.8783 H       1  UNL1        0.0620
     38 H           3.6764  -41.7140    7.5388 H       1  UNL1        0.0618
     39 H           4.5324  -38.0249    9.3996 H       1  UNL1        0.0618
     40 H           5.2329  -40.2652    8.7351 H       1  UNL1        0.0618
     41 H           0.4330  -33.6615   13.5816 H       1  UNL1        0.0232
     42 H          -1.2633  -33.2928   13.3825 H       1  UNL1        0.0232
     43 H          -0.0717  -32.0216   13.2514 H       1  UNL1        0.0232
     44 H           1.9819  -33.5331   11.5368 H       1  UNL1        0.0232
     45 H           1.4278  -31.9018   11.2455 H       1  UNL1        0.0232
     46 H           1.3023  -33.1053    9.9850 H       1  UNL1        0.0232
@<TRIPOS>UNITY_ATOM_ATTR
3 1
charge -1
9 1
charge 1
@<TRIPOS>BOND
     1    15    17   ar
     2    15    14   ar
     3    12    14    1
     4    12    10    1
     5    17    19   ar
     6     8    13    2
     7    14    16   ar
     8     3     1   ar
     9    22     1   ar
    10    11    13    1
    11    11    10    1
    12    11     7    1
    13    19    18   ar
    14    16    18   ar
    15    13     2   am
    16    10     9    1
    17     1     4    1
    18     2     4    1
    19     4     5    1
    20    21     6    1
    21     5     6    1
    22     6    20    1
    23     2    23    1
    24     4    24    1
    25     5    25    1
    26     5    26    1
    27     6    27    1
    28     7    28    1
    29     9    29    1
    30     9    30    1
    31     9    31    1
    32    10    32    1
    33    11    33    1
    34    12    34    1
    35    12    35    1
    36    15    36    1
    37    16    37    1
    38    17    38    1
    39    18    39    1
    40    19    40    1
    41    20    41    1
    42    20    42    1
    43    20    43    1
    44    21    44    1
    45    21    45    1
    46    21    46    1
