@<TRIPOS>MOLECULE
../3m51_L.pdb
 48 51 0 0 0
SMALL
GASTEIGER

@<TRIPOS>ATOM
      1 O          -1.1190  -30.5550   12.7770 O.co2   1  UNL1       -0.5445
      2 O          -3.6340  -24.6970   11.6050 O.2     1  UNL1       -0.2869
      3 O          -7.1090  -28.7870    9.3330 O.2     1  UNL1       -0.2709
      4 O           0.9740  -27.9070    6.8080 O.2     1  UNL1       -0.1261
      5 O          -1.2910  -32.7970   12.5950 O.co2   1  UNL1       -0.5445
      6 O          -7.1550  -25.9460    9.2490 O.co2   1  UNL1       -0.8701
      7 O          -3.3690  -33.8160   11.3340 O.3     1  UNL1       -0.5061
      8 O           1.9330  -27.0000    8.5550 O.2     1  UNL1       -0.1261
      9 C          -6.2420  -21.3690    8.8470 C.ar    1  UNL1       -0.0617
     10 C          -5.9560  -22.5000    8.0650 C.ar    1  UNL1       -0.0611
     11 C          -5.9410  -21.3660   10.2220 C.ar    1  UNL1       -0.0611
     12 C          -5.3920  -23.6410    8.6630 C.ar    1  UNL1       -0.0509
     13 C          -5.3630  -22.4950   10.8180 C.ar    1  UNL1       -0.0509
     14 C          -4.9530  -32.2640   10.3880 C.ar    1  UNL1       -0.0178
     15 C          -2.7030  -27.9450    8.6900 C.ar    1  UNL1       -0.0543
     16 C          -1.6370  -26.9440   10.6390 C.ar    1  UNL1       -0.0543
     17 C          -5.3820  -30.9600   10.1360 C.ar    1  UNL1       -0.0367
     18 C          -1.4800  -27.9510    8.0110 C.ar    1  UNL1       -0.0312
     19 C          -0.4060  -26.9410    9.9720 C.ar    1  UNL1       -0.0312
     20 C          -3.4500  -30.1340   11.3430 C.ar    1  UNL1       -0.0279
     21 C          -1.7300  -31.5350   12.3730 C.2     1  UNL1        0.0752
     22 C          -6.1080  -26.6010    9.7430 C.2     1  UNL1       -0.0351
     23 C          -4.4790  -24.8430   10.7140 C.2     1  UNL1        0.1909
     24 C          -6.1890  -28.1030    9.7620 C.2     1  UNL1        0.2372
     25 C          -4.9290  -26.1800   10.3080 C.2     1  UNL1        0.0222
     26 C          -3.7690  -32.5410   11.1080 C.ar    1  UNL1        0.1258
     27 C          -5.1080  -23.6500   10.0490 C.ar    1  UNL1        0.0220
     28 C          -2.7890  -27.4450   10.0040 C.ar    1  UNL1       -0.0220
     29 C          -3.0040  -31.4460   11.5960 C.ar    1  UNL1        0.0405
     30 C          -4.6210  -29.8650   10.6160 C.ar    1  UNL1        0.0384
     31 C          -0.3470  -27.4460    8.6660 C.ar    1  UNL1        0.1262
     32 C          -4.1330  -27.4030   10.7240 C.3     1  UNL1        0.0846
     33 N          -5.0060  -28.5280   10.3730 N.am    1  UNL1       -0.2567
     34 N           0.9560  -27.4520    7.9540 N.pl3   1  UNL1        0.0564
     35 H          -3.8790  -34.5316   11.0089 H       1  UNL1        0.2922
     36 H          -6.6737  -20.5384    8.4126 H       1  UNL1        0.0618
     37 H          -6.1594  -22.4937    7.0533 H       1  UNL1        0.0618
     38 H          -6.1463  -20.5308   10.7923 H       1  UNL1        0.0618
     39 H          -5.1848  -24.4736    8.0896 H       1  UNL1        0.0625
     40 H          -5.1233  -22.4815   11.8217 H       1  UNL1        0.0625
     41 H          -5.5193  -33.0521   10.0369 H       1  UNL1        0.0655
     42 H          -3.5488  -28.3097    8.2246 H       1  UNL1        0.0622
     43 H          -1.7001  -26.5769   11.6014 H       1  UNL1        0.0622
     44 H          -6.2496  -30.7939    9.6024 H       1  UNL1        0.0637
     45 H          -1.4127  -28.3189    7.0492 H       1  UNL1        0.0640
     46 H           0.4413  -26.5741   10.4330 H       1  UNL1        0.0640
     47 H          -2.8963  -29.3419   11.7049 H       1  UNL1        0.0644
     48 H          -3.8811  -27.4150   11.7639 H       1  UNL1        0.0606
@<TRIPOS>UNITY_ATOM_ATTR
5 1
charge -1
6 1
charge -1
@<TRIPOS>BOND
     1     4    34    2
     2    34     8    2
     3    34    31    1
     4    18    31   ar
     5    18    15   ar
     6    10    12   ar
     7    10     9   ar
     8    12    27   ar
     9    31    19   ar
    10    15    28   ar
    11     9    11   ar
    12     6    22    1
    13     3    24    2
    14    22    24    1
    15    22    25    2
    16    24    33   am
    17    19    16   ar
    18    28    16   ar
    19    28    32    1
    20    27    23    1
    21    27    13   ar
    22    17    14   ar
    23    17    30   ar
    24    11    13   ar
    25    25    23    1
    26    25    32    1
    27    33    30    1
    28    33    32    1
    29    14    26   ar
    30    30    20   ar
    31    23     2    2
    32    26     7    1
    33    26    29   ar
    34    20    29   ar
    35    29    21    1
    36    21     5   ar
    37    21     1   ar
    38     7    35    1
    39     9    36    1
    40    10    37    1
    41    11    38    1
    42    12    39    1
    43    13    40    1
    44    14    41    1
    45    15    42    1
    46    16    43    1
    47    17    44    1
    48    18    45    1
    49    19    46    1
    50    20    47    1
    51    32    48    1
