@<TRIPOS>MOLECULE
LIG
   49    52     1     0     0
SMALL
bcc


@<TRIPOS>ATOM
      1 N           -5.0060   -28.5280    10.3730 n          1 LIG      -0.345000
      2 N1           0.9560   -27.4520     7.9540 no         1 LIG       0.311200
      3 C           -6.2420   -21.3690     8.8470 ca         1 LIG      -0.105000
      4 C1          -5.9560   -22.5000     8.0650 ca         1 LIG      -0.149000
      5 C2          -5.9410   -21.3660    10.2220 ca         1 LIG      -0.149000
      6 C3          -5.3920   -23.6410     8.6630 ca         1 LIG      -0.077500
      7 C4          -5.3630   -22.4950    10.8180 ca         1 LIG      -0.077500
      8 C5          -4.9530   -32.2640    10.3880 ca         1 LIG      -0.231000
      9 C6          -2.7030   -27.9450     8.6900 ca         1 LIG      -0.113500
     10 C7          -1.6370   -26.9440    10.6390 ca         1 LIG      -0.113500
     11 C8          -5.3820   -30.9600    10.1360 ca         1 LIG      -0.116000
     12 C9          -1.4800   -27.9510     8.0110 ca         1 LIG      -0.073500
     13 C10         -0.4060   -26.9410     9.9720 ca         1 LIG      -0.073500
     14 C11         -3.4500   -30.1340    11.3430 ca         1 LIG      -0.114000
     15 C12         -1.7300   -31.5350    12.3730 c          1 LIG       0.925200
     16 C13         -6.1080   -26.6010     9.7430 ce         1 LIG       0.047900
     17 C14         -4.4790   -24.8430    10.7140 c          1 LIG       0.616900
     18 C15         -6.1890   -28.1030     9.7620 c          1 LIG       0.673700
     19 C16         -4.9290   -26.1800    10.3080 cf         1 LIG      -0.248400
     20 C17         -3.7690   -32.5410    11.1080 ca         1 LIG       0.141100
     21 C18         -5.1080   -23.6500    10.0490 ca         1 LIG      -0.161600
     22 C19         -2.7890   -27.4450    10.0040 ca         1 LIG      -0.061300
     23 C20         -3.0040   -31.4460    11.5960 ca         1 LIG      -0.122600
     24 C21         -4.6210   -29.8650    10.6160 ca         1 LIG      -0.013400
     25 C22         -0.3470   -27.4460     8.6660 ca         1 LIG      -0.175200
     26 C23         -4.1330   -27.4030    10.7240 c5         1 LIG       0.202200
     27 O           -1.1190   -30.5550    12.7770 o          1 LIG      -0.817300
     28 O1          -3.6340   -24.6970    11.6050 o          1 LIG      -0.521100
     29 O2          -7.1090   -28.7870     9.3330 o          1 LIG      -0.633500
     30 O3           0.9740   -27.9070     6.8080 o          1 LIG      -0.221500
     31 O4          -1.2910   -32.7970    12.5950 o          1 LIG      -0.817300
     32 O5          -7.1550   -25.9460     9.2490 oh         1 LIG      -0.472100
     33 O6          -3.3690   -33.8160    11.3340 oh         1 LIG      -0.456100
     34 O7           1.9330   -27.0000     8.5550 o          1 LIG      -0.221500
     35 H01         -7.4440   -26.3690     8.4370 ho         1 LIG       0.448000
     36 H           -3.8790   -34.5320    11.0090 ho         1 LIG       0.391000
     37 H1          -6.6740   -20.5380     8.4130 ha         1 LIG       0.129000
     38 H2          -6.1590   -22.4940     7.0530 ha         1 LIG       0.132500
     39 H3          -6.1460   -20.5310    10.7920 ha         1 LIG       0.132500
     40 H4          -5.1850   -24.4740     8.0900 ha         1 LIG       0.151500
     41 H5          -5.1230   -22.4820    11.8220 ha         1 LIG       0.151500
     42 H6          -5.5190   -33.0520    10.0370 ha         1 LIG       0.117000
     43 H7          -3.5490   -28.3100     8.2250 ha         1 LIG       0.180500
     44 H8          -1.7000   -26.5770    11.6010 ha         1 LIG       0.180500
     45 H9          -6.2500   -30.7940     9.6020 ha         1 LIG       0.137000
     46 H10         -1.4130   -28.3190     7.0490 ha         1 LIG       0.174000
     47 H11          0.4410   -26.5740    10.4330 ha         1 LIG       0.174000
     48 H12         -2.8960   -29.3420    11.7050 ha         1 LIG       0.150000
     49 H13         -3.8810   -27.4150    11.7640 h1         1 LIG       0.112700
@<TRIPOS>BOND
     1     1    24 1   
     2     1    26 1   
     3     2    25 1   
     4     2    34 1   
     5     3     5 ar  
     6     3    37 1   
     7     3     4 ar  
     8     4     6 ar  
     9     4    38 1   
    10     5     7 ar  
    11     5    39 1   
    12     6    21 ar  
    13     6    40 1   
    14     7    41 1   
    15     8    20 ar  
    16     8    42 1   
    17     9    22 ar  
    18     9    43 1   
    19    10    44 1   
    20     8    11 ar  
    21    11    24 ar  
    22    11    45 1   
    23     9    12 ar  
    24    12    25 ar  
    25    12    46 1   
    26    10    13 ar  
    27    13    47 1   
    28    14    23 ar  
    29    14    48 1   
    30    15    27 1   
    31    15    31 1   
    32    16    18 1   
    33    16    19 2   
    34    17    28 2   
    35     1    18 1   
    36    17    19 1   
    37    19    26 1   
    38    20    23 ar  
    39    20    33 1   
    40     7    21 ar  
    41    17    21 1   
    42    10    22 ar  
    43    22    26 1   
    44    15    23 1   
    45    14    24 ar  
    46    13    25 ar  
    47    26    49 1   
    48    18    29 2   
    49     2    30 1   
    50    16    32 1   
    51    32    35 1   
    52    33    36 1   
@<TRIPOS>SUBSTRUCTURE
     1 LIG         1 TEMP              0 ****  ****    0 ROOT
