# created with PyMOL 2.5.5
@<TRIPOS>MOLECULE
../3m51_L.pdb
49 52 1                 
SMALL
USER_CHARGES
@<TRIPOS>ATOM
1	   N	-5.006	-28.528	10.373	N.pl3	1	UNL1	-0.257	
2	   N	0.956	-27.452	7.954	N.pl3	1	UNL1	0.056	
3	   C	-6.242	-21.369	8.847	C.2	1	UNL1	-0.062	
4	   C	-5.956	-22.500	8.065	C.2	1	UNL1	-0.061	
5	   C	-5.941	-21.366	10.222	C.2	1	UNL1	-0.061	
6	   C	-5.392	-23.641	8.663	C.2	1	UNL1	-0.051	
7	   C	-5.363	-22.495	10.818	C.2	1	UNL1	-0.051	
8	   C	-4.953	-32.264	10.388	C.2	1	UNL1	-0.018	
9	   C	-2.703	-27.945	8.690	C.2	1	UNL1	-0.054	
10	   C	-1.637	-26.944	10.639	C.2	1	UNL1	-0.054	
11	   C	-5.382	-30.960	10.136	C.2	1	UNL1	-0.037	
12	   C	-1.480	-27.951	8.011	C.2	1	UNL1	-0.031	
13	   C	-0.406	-26.941	9.972	C.2	1	UNL1	-0.031	
14	   C	-3.450	-30.134	11.343	C.2	1	UNL1	-0.028	
15	   C	-1.730	-31.535	12.373	C.2	1	UNL1	0.075	
16	   C	-6.108	-26.601	9.743	C.2	1	UNL1	-0.035	
17	   C	-4.479	-24.843	10.714	C.2	1	UNL1	0.191	
18	   C	-6.189	-28.103	9.762	C.2	1	UNL1	0.237	
19	   C	-4.929	-26.180	10.308	C.2	1	UNL1	0.022	
20	   C	-3.769	-32.541	11.108	C.2	1	UNL1	0.126	
21	   C	-5.108	-23.650	10.049	C.2	1	UNL1	0.022	
22	   C	-2.789	-27.445	10.004	C.2	1	UNL1	-0.022	
23	   C	-3.004	-31.446	11.596	C.2	1	UNL1	0.041	
24	   C	-4.621	-29.865	10.616	C.2	1	UNL1	0.038	
25	   C	-0.347	-27.446	8.666	C.2	1	UNL1	0.126	
26	   C	-4.133	-27.403	10.724	C.3	1	UNL1	0.085	
27	   O	-1.119	-30.555	12.777	O.co2	1	UNL1	-0.544	
28	   O	-3.634	-24.697	11.605	O.2	1	UNL1	-0.287	
29	   O	-7.109	-28.787	9.333	O.2	1	UNL1	-0.271	
30	   O	0.974	-27.907	6.808	O.2	1	UNL1	-0.126	
31	   O	-1.291	-32.797	12.595	O.co2	1	UNL1	-0.544	
32	   O	-7.155	-25.946	9.249	O.3	1	UNL1	-0.870	
33	   O	-3.369	-33.816	11.334	O.3	1	UNL1	-0.506	
34	   O	1.933	-27.000	8.555	O.2	1	UNL1	-0.126	
35	 H01	-7.444	-26.369	8.437	 H	1	UNL1	0.000	
36	   H	-3.879	-34.532	11.009	 H	1	UNL1	0.292	
37	   H	-6.674	-20.538	8.413	 H	1	UNL1	0.062	
38	   H	-6.159	-22.494	7.053	 H	1	UNL1	0.062	
39	   H	-6.146	-20.531	10.792	 H	1	UNL1	0.062	
40	   H	-5.185	-24.474	8.090	 H	1	UNL1	0.062	
41	   H	-5.123	-22.482	11.822	 H	1	UNL1	0.062	
42	   H	-5.519	-33.052	10.037	 H	1	UNL1	0.065	
43	   H	-3.549	-28.310	8.225	 H	1	UNL1	0.062	
44	   H	-1.700	-26.577	11.601	 H	1	UNL1	0.062	
45	   H	-6.250	-30.794	9.602	 H	1	UNL1	0.064	
46	   H	-1.413	-28.319	7.049	 H	1	UNL1	0.064	
47	   H	0.441	-26.574	10.433	 H	1	UNL1	0.064	
48	   H	-2.896	-29.342	11.705	 H	1	UNL1	0.064	
49	   H	-3.881	-27.415	11.764	 H	1	UNL1	0.061	
@<TRIPOS>BOND
1 1 24 1
2 1 26 1
3 2 25 1
4 2 34 2
5 3 5 ar
6 3 37 1
7 3 4 ar
8 4 6 ar
9 4 38 1
10 5 7 ar
11 5 39 1
12 6 21 ar
13 6 40 1
14 7 41 1
15 8 20 ar
16 8 42 1
17 9 22 ar
18 9 43 1
19 10 44 1
20 8 11 ar
21 11 24 ar
22 11 45 1
23 9 12 ar
24 12 25 ar
25 12 46 1
26 10 13 ar
27 13 47 1
28 14 23 ar
29 14 48 1
30 15 27 2
31 15 31 1
32 16 18 1
33 16 19 2
34 17 28 2
35 1 18 1
36 17 19 1
37 19 26 1
38 20 23 ar
39 20 33 1
40 7 21 ar
41 17 21 1
42 10 22 ar
43 22 26 1
44 15 23 1
45 14 24 ar
46 13 25 ar
47 26 49 1
48 18 29 2
49 2 30 1
50 16 32 1
51 32 35 1
52 33 36 1
@<TRIPOS>SUBSTRUCTURE
1	UNL1	1	GROUP	1 ****	UNL
