@<TRIPOS>MOLECULE
LIG
   49    50     1     0     0
SMALL
bcc


@<TRIPOS>ATOM
      1 O1          32.1450    35.0340    -7.3620 o          1 LIG      -0.825800
      2 C2          32.3460    35.4090    -8.6630 c          1 LIG       0.930600
      3 C3          33.6830    36.1320    -8.9050 c3         1 LIG      -0.033900
      4 O4          31.5280    35.1680    -9.5080 o          1 LIG      -0.825800
      5 C5          34.8780    35.1620    -8.6930 c3         1 LIG       0.097100
      6 C6          36.2200    35.9120    -8.8940 c3         1 LIG       0.085700
      7 C7          37.4330    35.0000    -8.6700 c3         1 LIG      -0.049100
      8 O8          33.7180    36.6010   -10.2280 oh         1 LIG      -0.575800
      9 O9          34.7760    34.1080    -9.6180 oh         1 LIG      -0.636800
     10 N10         36.3490    37.1120    -8.0800 ns         1 LIG      -0.528900
     11 C11         35.9810    38.3370    -8.5170 c          1 LIG       0.624100
     12 O12         35.3120    38.5680    -9.5390 o          1 LIG      -0.625100
     13 C13         36.4740    39.4940    -7.6480 c3         1 LIG       0.058400
     14 O14         37.1210    39.0030    -6.4940 os         1 LIG      -0.438600
     15 C15         37.6670    40.0150    -5.6700 c3         1 LIG       0.086700
     16 C16         38.7200    35.6880    -9.0650 ca         1 LIG      -0.033300
     17 C17         39.0520    35.8560   -10.4290 ca         1 LIG      -0.127000
     18 C18         40.1970    36.5670   -10.8130 ca         1 LIG      -0.111500
     19 C19         41.0520    37.1400    -9.8430 cp         1 LIG      -0.076000
     20 C20         40.7280    36.9710    -8.4790 ca         1 LIG      -0.111500
     21 C21         39.5800    36.2580    -8.1010 ca         1 LIG      -0.127000
     22 C22         42.2620    37.9090   -10.2480 cp         1 LIG       0.008000
     23 C23         43.1260    37.4040   -11.2440 ca         1 LIG      -0.120500
     24 C24         44.2610    38.1450   -11.6170 ca         1 LIG       0.025400
     25 C25         44.5650    39.3820   -11.0170 ca         1 LIG      -0.133000
     26 C26         43.6910    39.8670   -10.0250 ca         1 LIG       0.025400
     27 C27         42.5480    39.1500    -9.6370 ca         1 LIG      -0.120500
     28 Cl28        44.0360    41.4110    -9.2670 cl         1 LIG      -0.099900
     29 Cl29        45.3350    37.5110   -12.8480 cl         1 LIG      -0.099900
     30 H30         33.7630    36.9710    -8.1670 h1         1 LIG       0.027700
     31 H31         34.8560    34.7150    -7.6670 h1         1 LIG       0.052700
     32 H32         36.2130    36.2530    -9.9540 h1         1 LIG       0.083700
     33 H33         37.4730    34.6940    -7.5980 hc         1 LIG       0.068700
     34 H34         37.2570    34.0810    -9.2650 hc         1 LIG       0.068700
     35 H35         34.2990    37.4090   -10.1720 ho         1 LIG       0.375000
     36 H36         34.4230    34.5470   -10.4270 ho         1 LIG       0.454000
     37 H37         37.1660    40.1100    -8.2820 h1         1 LIG       0.069700
     38 H38         35.5970    40.1460    -7.4000 h1         1 LIG       0.069700
     39 H39         38.1430    39.5130    -4.8030 h1         1 LIG       0.058367
     40 H40         38.4410    40.6200    -6.2080 h1         1 LIG       0.058367
     41 H41         36.8780    40.7140    -5.2930 h1         1 LIG       0.058367
     42 H42         38.3900    35.4330   -11.2040 ha         1 LIG       0.139500
     43 H43         40.4270    36.7010   -11.8840 ha         1 LIG       0.128000
     44 H44         41.3930    37.3940    -7.7070 ha         1 LIG       0.128000
     45 H45         39.3520    36.1340    -7.0270 ha         1 LIG       0.139500
     46 H46         42.9250    36.4320   -11.7180 ha         1 LIG       0.156500
     47 H47         45.4570    39.9520   -11.3140 ha         1 LIG       0.155000
     48 H48         41.8720    39.5640    -8.8730 ha         1 LIG       0.156500
     49 H49         36.9490    37.1130    -7.2460 hn         1 LIG       0.311500
@<TRIPOS>BOND
     1     1     2 1   
     2     2     3 1   
     3     3     5 1   
     4     3    30 1   
     5     2     4 1   
     6     5    31 1   
     7     5     6 1   
     8     6     7 1   
     9     6    10 1   
    10     7    33 1   
    11     3     8 1   
    12     8    35 1   
    13     5     9 1   
    14    10    49 1   
    15    10    11 1   
    16    11    13 1   
    17    11    12 2   
    18    13    14 1   
    19    13    38 1   
    20    14    15 1   
    21    15    39 1   
    22    15    41 1   
    23     7    16 1   
    24    16    21 ar  
    25    16    17 ar  
    26    17    18 ar  
    27    18    19 ar  
    28    19    20 ar  
    29    20    21 ar  
    30    20    44 1   
    31    21    45 1   
    32    19    22 1   
    33    22    27 ar  
    34    22    23 ar  
    35    23    24 ar  
    36    24    25 ar  
    37    25    26 ar  
    38    26    27 ar  
    39    26    28 1   
    40    27    48 1   
    41    24    29 1   
    42     6    32 1   
    43     7    34 1   
    44     9    36 1   
    45    13    37 1   
    46    15    40 1   
    47    17    42 1   
    48    18    43 1   
    49    23    46 1   
    50    25    47 1   
@<TRIPOS>SUBSTRUCTURE
     1 LIG         1 TEMP              0 ****  ****    0 ROOT
