# created with PyMOL 2.5.5
@<TRIPOS>MOLECULE
../4mdk_L.pdb
49 50 1                 
SMALL
USER_CHARGES
@<TRIPOS>ATOM
1	  O1	32.145	35.034	-7.362	O.co2	1	LIG256	-0.479	
2	  C2	32.346	35.409	-8.663	C.2	1	LIG256	0.336	
3	  C3	33.683	36.132	-8.905	C.3	1	LIG256	0.179	
4	  O4	31.528	35.168	-9.508	O.co2	1	LIG256	-0.248	
5	  C5	34.878	35.162	-8.693	C.3	1	LIG256	0.110	
6	  C6	36.220	35.912	-8.894	C.3	1	LIG256	0.056	
7	  C7	37.433	35.000	-8.670	C.3	1	LIG256	-0.007	
8	  O8	33.718	36.601	-10.228	O.3	1	LIG256	-0.378	
9	  O9	34.776	34.108	-9.618	O.3	1	LIG256	-0.387	
10	 N10	36.349	37.112	-8.080	N.pl3	1	LIG256	-0.308	
11	 C11	35.981	38.337	-8.517	C.2	1	LIG256	0.239	
12	 O12	35.312	38.568	-9.539	O.2	1	LIG256	-0.273	
13	 C13	36.474	39.494	-7.648	C.3	1	LIG256	0.123	
14	 O14	37.121	39.003	-6.494	O.3	1	LIG256	-0.374	
15	 C15	37.667	40.015	-5.670	C.3	1	LIG256	0.037	
16	 C16	38.720	35.688	-9.065	C.2	1	LIG256	-0.045	
17	 C17	39.052	35.856	-10.429	C.2	1	LIG256	-0.058	
18	 C18	40.197	36.567	-10.813	C.2	1	LIG256	-0.054	
19	 C19	41.052	37.140	-9.843	C.2	1	LIG256	-0.018	
20	 C20	40.728	36.971	-8.479	C.2	1	LIG256	-0.054	
21	 C21	39.580	36.258	-8.101	C.2	1	LIG256	-0.058	
22	 C22	42.262	37.909	-10.248	C.2	1	LIG256	-0.017	
23	 C23	43.126	37.404	-11.244	C.2	1	LIG256	-0.050	
24	 C24	44.261	38.145	-11.617	C.2	1	LIG256	-0.038	
25	 C25	44.565	39.382	-11.017	C.2	1	LIG256	-0.054	
26	 C26	43.691	39.867	-10.025	C.2	1	LIG256	-0.038	
27	 C27	42.548	39.150	-9.637	C.2	1	LIG256	-0.050	
28	Cl28	44.036	41.411	-9.267	C.3	1	LIG256	0.030	
29	Cl29	45.335	37.511	-12.848	C.3	1	LIG256	0.030	
30	 H30	33.763	36.971	-8.167	 H	1	LIG256	0.074	
31	 H31	34.856	34.715	-7.667	 H	1	LIG256	0.064	
32	 H32	36.213	36.253	-9.954	 H	1	LIG256	0.053	
33	 H33	37.473	34.694	-7.598	 H	1	LIG256	0.033	
34	 H34	37.257	34.081	-9.265	 H	1	LIG256	0.033	
35	 H35	34.299	37.409	-10.172	 H	1	LIG256	0.211	
36	 H36	34.423	34.547	-10.427	 H	1	LIG256	0.210	
37	 H37	37.166	40.110	-8.282	 H	1	LIG256	0.066	
38	 H38	35.597	40.146	-7.400	 H	1	LIG256	0.066	
39	 H39	38.143	39.513	-4.803	 H	1	LIG256	0.052	
40	 H40	38.441	40.620	-6.208	 H	1	LIG256	0.052	
41	 H41	36.878	40.714	-5.293	 H	1	LIG256	0.052	
42	 H42	38.390	35.433	-11.204	 H	1	LIG256	0.062	
43	 H43	40.427	36.701	-11.884	 H	1	LIG256	0.062	
44	 H44	41.393	37.394	-7.707	 H	1	LIG256	0.062	
45	 H45	39.352	36.134	-7.027	 H	1	LIG256	0.062	
46	 H46	42.925	36.432	-11.718	 H	1	LIG256	0.063	
47	 H47	45.457	39.952	-11.314	 H	1	LIG256	0.062	
48	 H48	41.872	39.564	-8.873	 H	1	LIG256	0.063	
49	 H49	36.949	37.113	-7.246	 H	1	LIG256	0.149	
@<TRIPOS>BOND
1 1 2 1
2 2 3 1
3 3 5 1
4 3 30 1
5 2 4 2
6 5 31 1
7 5 6 1
8 6 7 1
9 6 10 1
10 7 33 1
11 3 8 1
12 8 35 1
13 5 9 1
14 10 49 1
15 10 11 1
16 11 13 1
17 11 12 2
18 13 14 1
19 13 38 1
20 14 15 1
21 15 39 1
22 15 41 1
23 7 16 1
24 16 21 ar
25 16 17 ar
26 17 18 ar
27 18 19 ar
28 19 20 ar
29 20 21 ar
30 20 44 1
31 21 45 1
32 19 22 1
33 22 27 ar
34 22 23 ar
35 23 24 ar
36 24 25 ar
37 25 26 ar
38 26 27 ar
39 26 28 1
40 27 48 1
41 24 29 1
42 6 32 1
43 7 34 1
44 9 36 1
45 13 37 1
46 15 40 1
47 17 42 1
48 18 43 1
49 23 46 1
50 25 47 1
@<TRIPOS>SUBSTRUCTURE
1	LIG256	1	GROUP	1 ****	LIG
