@<TRIPOS>MOLECULE
../4mdk_L.pdb
 50 51 0 0 0
SMALL
GASTEIGER

@<TRIPOS>ATOM
      1  O1        32.1450   35.0340   -7.3620 O.3   256  LIG256     -0.4788
      2  C2        32.3460   35.4090   -8.6630 C.2   256  LIG256      0.3363
      3  C3        33.6830   36.1320   -8.9050 C.3   256  LIG256      0.1790
      4  O4        31.5280   35.1680   -9.5080 O.2   256  LIG256     -0.2480
      5  C5        34.8780   35.1620   -8.6930 C.3   256  LIG256      0.1100
      6  C6        36.2200   35.9120   -8.8940 C.3   256  LIG256      0.0560
      7  C7        37.4330   35.0000   -8.6700 C.3   256  LIG256     -0.0067
      8  O8        33.7180   36.6010  -10.2280 O.3   256  LIG256     -0.3783
      9  O9        34.7760   34.1080   -9.6180 O.3   256  LIG256     -0.3868
     10  N10       36.3490   37.1120   -8.0800 N.am  256  LIG256     -0.3077
     11  C11       35.9810   38.3370   -8.5170 C.2   256  LIG256      0.2391
     12  O12       35.3120   38.5680   -9.5390 O.2   256  LIG256     -0.2733
     13  C13       36.4740   39.4940   -7.6480 C.3   256  LIG256      0.1233
     14  O14       37.1210   39.0030   -6.4940 O.3   256  LIG256     -0.3738
     15  C15       37.6670   40.0150   -5.6700 C.3   256  LIG256      0.0371
     16  C16       38.7200   35.6880   -9.0650 C.ar  256  LIG256     -0.0455
     17  C17       39.0520   35.8560  -10.4290 C.ar  256  LIG256     -0.0579
     18  C18       40.1970   36.5670  -10.8130 C.ar  256  LIG256     -0.0538
     19  C19       41.0520   37.1400   -9.8430 C.ar  256  LIG256     -0.0178
     20  C20       40.7280   36.9710   -8.4790 C.ar  256  LIG256     -0.0538
     21  C21       39.5800   36.2580   -8.1010 C.ar  256  LIG256     -0.0579
     22  C22       42.2620   37.9090  -10.2480 C.ar  256  LIG256     -0.0173
     23  C23       43.1260   37.4040  -11.2440 C.ar  256  LIG256     -0.0502
     24  C24       44.2610   38.1450  -11.6170 C.ar  256  LIG256     -0.0376
     25  C25       44.5650   39.3820  -11.0170 C.ar  256  LIG256     -0.0541
     26  C26       43.6910   39.8670  -10.0250 C.ar  256  LIG256     -0.0376
     27  C27       42.5480   39.1500   -9.6370 C.ar  256  LIG256     -0.0502
     28 Cl28       44.0360   41.4110   -9.2670 C.3   256  LIG256      0.0298
     29 Cl29       45.3350   37.5110  -12.8480 C.3   256  LIG256      0.0298
     30  H30       33.7630   36.9710   -8.1670 H     256  LIG256      0.0737
     31  H31       34.8560   34.7150   -7.6670 H     256  LIG256      0.0643
     32  H32       36.2130   36.2530   -9.9540 H     256  LIG256      0.0528
     33  H33       37.4730   34.6940   -7.5980 H     256  LIG256      0.0332
     34  H34       37.2570   34.0810   -9.2650 H     256  LIG256      0.0332
     35  H35       34.2990   37.4090  -10.1720 H     256  LIG256      0.2106
     36  H36       34.4230   34.5470  -10.4270 H     256  LIG256      0.2100
     37  H37       37.1660   40.1100   -8.2820 H     256  LIG256      0.0656
     38  H38       35.5970   40.1460   -7.4000 H     256  LIG256      0.0656
     39  H39       38.1430   39.5130   -4.8030 H     256  LIG256      0.0524
     40  H40       38.4410   40.6200   -6.2080 H     256  LIG256      0.0524
     41  H41       36.8780   40.7140   -5.2930 H     256  LIG256      0.0524
     42  H42       38.3900   35.4330  -11.2040 H     256  LIG256      0.0620
     43  H43       40.4270   36.7010  -11.8840 H     256  LIG256      0.0624
     44  H44       41.3930   37.3940   -7.7070 H     256  LIG256      0.0624
     45  H45       39.3520   36.1340   -7.0270 H     256  LIG256      0.0620
     46  H46       42.9250   36.4320  -11.7180 H     256  LIG256      0.0627
     47  H47       45.4570   39.9520  -11.3140 H     256  LIG256      0.0623
     48  H48       41.8720   39.5640   -8.8730 H     256  LIG256      0.0627
     49  H49       36.9490   37.1130   -7.2460 H     256  LIG256      0.1491
     50  H50       32.8980   35.3370   -6.8170 H     256  LIG256      0.2951
@<TRIPOS>BOND
     1    29    24    1
     2    43    18    1
     3    46    23    1
     4    24    23   ar
     5    24    25   ar
     6    47    25    1
     7    23    22   ar
     8    42    17    1
     9    25    26   ar
    10    18    17   ar
    11    18    19   ar
    12    17    16   ar
    13    36     9    1
    14    22    19    1
    15    22    27   ar
    16     8    35    1
    17     8     3    1
    18    26    27   ar
    19    26    28    1
    20    32     6    1
    21    19    20   ar
    22    27    48    1
    23     9     5    1
    24    12    11    2
    25     4     2    2
    26    34     7    1
    27    16     7    1
    28    16    21   ar
    29     3     5    1
    30     3     2    1
    31     3    30    1
    32     6     5    1
    33     6     7    1
    34     6    10    1
    35     5    31    1
    36     7    33    1
    37     2     1    1
    38    11    10   am
    39    11    13    1
    40    20    21   ar
    41    20    44    1
    42    37    13    1
    43    21    45    1
    44    10    49    1
    45    13    38    1
    46    13    14    1
    47     1    50    1
    48    14    15    1
    49    40    15    1
    50    15    41    1
    51    15    39    1
