# created with PyMOL 2.5.5
@<TRIPOS>MOLECULE
../5ad2_L.pdb
64 68 1                 
SMALL
USER_CHARGES
@<TRIPOS>ATOM
1	   N	-41.535	8.845	142.334	N.pl3	1	LIG259	-0.302	
2	   C	-40.335	10.937	141.637	C.3	1	LIG259	0.085	
3	   O	-42.289	10.899	143.062	O.2	1	LIG259	-0.274	
4	  C1	-41.507	10.242	142.372	C.2	1	LIG259	0.232	
5	  N1	-40.007	10.256	140.359	N.3	1	LIG259	-0.287	
6	  O1	-39.193	9.623	137.535	O.3	1	LIG259	-0.491	
7	  C2	-40.979	8.155	141.176	C.3	1	LIG259	0.027	
8	  N2	-42.609	9.137	129.876	N.pl3	1	LIG259	-0.314	
9	  C3	-39.740	8.829	140.582	C.3	1	LIG259	0.015	
10	  N3	-41.650	10.789	124.778	N.2	1	LIG259	-0.128	
11	  C4	-38.927	10.911	139.602	C.3	1	LIG259	0.034	
12	  N4	-41.064	9.613	124.350	N.2	1	LIG259	-0.132	
13	  C5	-39.220	10.943	138.089	C.3	1	LIG259	0.102	
14	  N5	-41.634	9.370	126.475	N.pl3	1	LIG259	-0.195	
15	  C6	-39.867	9.504	136.349	C.2	1	LIG259	0.121	
16	  N6	-41.819	8.838	127.720	N.2	1	LIG259	-0.148	
17	  C7	-39.864	10.471	135.346	C.2	1	LIG259	-0.020	
18	  C8	-40.581	10.259	134.163	C.2	1	LIG259	-0.055	
19	  C9	-41.316	9.081	133.967	C.2	1	LIG259	-0.044	
20	 C10	-41.277	8.101	134.972	C.2	1	LIG259	-0.055	
21	 C11	-40.552	8.309	136.148	C.2	1	LIG259	-0.020	
22	 C12	-42.096	8.807	132.692	C.3	1	LIG259	-0.013	
23	 C13	-42.843	10.033	132.128	C.3	1	LIG259	-0.030	
24	 C14	-43.575	9.667	130.839	C.3	1	LIG259	0.014	
25	 C15	-41.954	7.903	130.335	C.3	1	LIG259	0.014	
26	 C16	-41.180	8.194	131.621	C.3	1	LIG259	-0.030	
27	 C17	-42.400	9.629	128.591	C.2	1	LIG259	0.142	
28	 C18	-42.802	11.036	128.223	C.2	1	LIG259	-0.016	
29	 C19	-42.588	11.485	126.980	C.2	1	LIG259	-0.012	
30	 C20	-41.984	10.631	126.043	C.2	1	LIG259	0.178	
31	 C21	-41.066	8.791	125.373	C.2	1	LIG259	0.164	
32	 C22	-42.604	8.167	143.042	C.3	1	LIG259	0.003	
33	 C23	-39.175	11.083	142.629	C.3	1	LIG259	-0.041	
34	  Cl	-40.463	7.204	125.412	C.3	1	LIG259	0.076	
35	 H01	-43.265	11.685	128.967	 H	1	LIG259	0.000	
36	 H02	-42.878	12.498	126.700	 H	1	LIG259	0.000	
37	   H	-41.770	8.104	140.417	 H	1	LIG259	0.048	
38	  H1	-40.726	7.131	141.474	 H	1	LIG259	0.048	
39	  H2	-38.880	8.685	141.246	 H	1	LIG259	0.044	
40	  H3	-39.501	8.318	139.644	 H	1	LIG259	0.044	
41	  H4	-37.961	10.429	139.796	 H	1	LIG259	0.046	
42	  H5	-38.831	11.959	139.912	 H	1	LIG259	0.046	
43	  H6	-40.194	11.424	137.927	 H	1	LIG259	0.071	
44	  H7	-38.441	11.543	137.603	 H	1	LIG259	0.071	
45	  H8	-39.298	11.390	135.452	 H	1	LIG259	0.065	
46	  H9	-40.541	11.028	133.396	 H	1	LIG259	0.062	
47	 H10	-41.809	7.160	134.845	 H	1	LIG259	0.062	
48	 H11	-40.534	7.540	136.916	 H	1	LIG259	0.065	
49	 H12	-42.869	8.063	132.937	 H	1	LIG259	0.035	
50	 H13	-42.146	10.851	131.909	 H	1	LIG259	0.029	
51	 H14	-43.559	10.411	132.868	 H	1	LIG259	0.029	
52	 H15	-44.339	8.906	131.042	 H	1	LIG259	0.046	
53	 H16	-44.117	10.539	130.466	 H	1	LIG259	0.046	
54	 H17	-41.253	7.496	129.599	 H	1	LIG259	0.046	
55	 H18	-42.712	7.130	130.510	 H	1	LIG259	0.046	
56	 H19	-40.729	7.265	131.990	 H	1	LIG259	0.029	
57	 H20	-40.353	8.881	131.398	 H	1	LIG259	0.029	
58	 H23	-42.856	8.696	143.965	 H	1	LIG259	0.043	
59	 H24	-42.285	7.152	143.292	 H	1	LIG259	0.043	
60	 H25	-43.489	8.132	142.399	 H	1	LIG259	0.043	
61	 H26	-40.704	11.938	141.378	 H	1	LIG259	0.056	
62	 H27	-38.827	10.116	143.005	 H	1	LIG259	0.025	
63	 H28	-39.499	11.662	143.502	 H	1	LIG259	0.025	
64	 H29	-38.323	11.611	142.189	 H	1	LIG259	0.025	
@<TRIPOS>BOND
1 1 4 1
2 1 32 1
3 2 4 1
4 2 33 1
5 3 4 2
6 2 5 1
7 5 9 1
8 6 13 1
9 1 7 1
10 7 38 1
11 8 24 1
12 8 25 1
13 7 9 1
14 9 39 1
15 10 30 2
16 5 11 1
17 11 41 1
18 11 42 1
19 10 12 1
20 12 31 2
21 11 13 1
22 14 16 1
23 6 15 1
24 16 27 2
25 15 17 ar
26 17 45 1
27 17 18 ar
28 18 19 ar
29 19 20 ar
30 20 21 ar
31 15 21 ar
32 21 48 1
33 19 22 1
34 22 49 1
35 22 23 1
36 23 51 1
37 23 24 1
38 24 52 1
39 25 26 1
40 25 55 1
41 22 26 1
42 26 56 1
43 8 27 1
44 27 28 1
45 28 35 1
46 28 29 2
47 29 36 1
48 14 30 1
49 29 30 1
50 14 31 1
51 31 34 1
52 32 58 1
53 32 59 1
54 33 62 1
55 33 63 1
56 7 37 1
57 9 40 1
58 13 43 1
59 13 44 1
60 18 46 1
61 20 47 1
62 23 50 1
63 24 53 1
64 25 54 1
65 26 57 1
66 32 60 1
67 2 61 1
68 33 64 1
@<TRIPOS>SUBSTRUCTURE
1	LIG259	1	GROUP	1 ****	LIG
