@<TRIPOS>MOLECULE
LIG
   64    68     1     0     0
SMALL
bcc


@<TRIPOS>ATOM
      1 N          -41.5350     8.8450   142.3340 n          1 LIG      -0.462800
      2 C          -40.3350    10.9370   141.6370 c6         1 LIG       0.117500
      3 O          -42.2890    10.8990   143.0620 o          1 LIG      -0.645500
      4 C1         -41.5070    10.2420   142.3720 c          1 LIG       0.701500
      5 N1         -40.0070    10.2560   140.3590 n3         1 LIG      -0.734600
      6 O1         -39.1930     9.6230   137.5350 os         1 LIG      -0.339900
      7 C2         -40.9790     8.1550   141.1760 c6         1 LIG       0.096000
      8 N2         -42.6090     9.1370   129.8760 nh         1 LIG      -0.709300
      9 C3         -39.7400     8.8290   140.5820 c6         1 LIG       0.152800
     10 N3         -41.6500    10.7890   124.7780 nc         1 LIG      -0.051000
     11 C4         -38.9270    10.9110   139.6020 c3         1 LIG       0.172800
     12 N4         -41.0640     9.6130   124.3500 nc         1 LIG      -0.328700
     13 C5         -39.2200    10.9430   138.0890 c3         1 LIG       0.124400
     14 N5         -41.6340     9.3700   126.4750 na         1 LIG       0.101300
     15 C6         -39.8670     9.5040   136.3490 ca         1 LIG       0.127100
     16 N6         -41.8190     8.8380   127.7200 nc         1 LIG      -0.517800
     17 C7         -39.8640    10.4710   135.3460 ca         1 LIG      -0.179000
     18 C8         -40.5810    10.2590   134.1630 ca         1 LIG      -0.091000
     19 C9         -41.3160     9.0810   133.9670 ca         1 LIG      -0.114300
     20 C10        -41.2770     8.1010   134.9720 ca         1 LIG      -0.091000
     21 C11        -40.5520     8.3090   136.1480 ca         1 LIG      -0.179000
     22 C12        -42.0960     8.8070   132.6920 c6         1 LIG      -0.013400
     23 C13        -42.8430    10.0330   132.1280 c6         1 LIG      -0.105400
     24 C14        -43.5750     9.6670   130.8390 c6         1 LIG       0.173800
     25 C15        -41.9540     7.9030   130.3350 c6         1 LIG       0.173800
     26 C16        -41.1800     8.1940   131.6210 c6         1 LIG      -0.105400
     27 C17        -42.4000     9.6290   128.5910 cd         1 LIG       0.591200
     28 C18        -42.8020    11.0360   128.2230 cd         1 LIG      -0.233300
     29 C19        -42.5880    11.4850   126.9800 cd         1 LIG      -0.028000
     30 C20        -41.9840    10.6310   126.0430 cd         1 LIG      -0.131300
     31 C21        -41.0660     8.7910   125.3730 cd         1 LIG       0.351800
     32 C22        -42.6040     8.1670   143.0420 c3         1 LIG       0.073300
     33 C23        -39.1750    11.0830   142.6290 c3         1 LIG      -0.125100
     34 Cl         -40.4630     7.2040   125.4120 cl         1 LIG       0.005700
     35 H01        -43.2650    11.6850   128.9670 ha         1 LIG       0.165000
     36 H02        -42.8780    12.4980   126.7000 ha         1 LIG       0.174000
     37 H          -41.7700     8.1040   140.4170 h1         1 LIG       0.044700
     38 H1         -40.7260     7.1310   141.4740 h1         1 LIG       0.044700
     39 H2         -38.8800     8.6850   141.2460 h1         1 LIG       0.053700
     40 H3         -39.5010     8.3180   139.6440 h1         1 LIG       0.053700
     41 H4         -37.9610    10.4290   139.7960 h1         1 LIG       0.051700
     42 H5         -38.8310    11.9590   139.9120 h1         1 LIG       0.051700
     43 H6         -40.1940    11.4240   137.9270 h1         1 LIG       0.052200
     44 H7         -38.4410    11.5430   137.6030 h1         1 LIG       0.052200
     45 H8         -39.2980    11.3900   135.4520 ha         1 LIG       0.144000
     46 H9         -40.5410    11.0280   133.3960 ha         1 LIG       0.135000
     47 H10        -41.8090     7.1600   134.8450 ha         1 LIG       0.135000
     48 H11        -40.5340     7.5400   136.9160 ha         1 LIG       0.144000
     49 H12        -42.8690     8.0630   132.9370 hc         1 LIG       0.051700
     50 H13        -42.1460    10.8510   131.9090 hc         1 LIG       0.059450
     51 H14        -43.5590    10.4110   132.8680 hc         1 LIG       0.059450
     52 H15        -44.3390     8.9060   131.0420 h1         1 LIG       0.063200
     53 H16        -44.1170    10.5390   130.4660 h1         1 LIG       0.063200
     54 H17        -41.2530     7.4960   129.5990 h1         1 LIG       0.063200
     55 H18        -42.7120     7.1300   130.5100 h1         1 LIG       0.063200
     56 H19        -40.7290     7.2650   131.9900 hc         1 LIG       0.059450
     57 H20        -40.3530     8.8810   131.3980 hc         1 LIG       0.059450
     58 H23        -42.8560     8.6960   143.9650 h1         1 LIG       0.046367
     59 H24        -42.2850     7.1520   143.2920 h1         1 LIG       0.046367
     60 H25        -43.4890     8.1320   142.3990 h1         1 LIG       0.046367
     61 H26        -40.7040    11.9380   141.3780 h1         1 LIG       0.088700
     62 H27        -38.8270    10.1160   143.0050 hc         1 LIG       0.050700
     63 H28        -39.4990    11.6620   143.5020 hc         1 LIG       0.050700
     64 H29        -38.3230    11.6110   142.1890 hc         1 LIG       0.050700
@<TRIPOS>BOND
     1     1     4 1   
     2     1    32 1   
     3     2     4 1   
     4     2    33 1   
     5     3     4 2   
     6     2     5 1   
     7     5     9 1   
     8     6    13 1   
     9     1     7 1   
    10     7    38 1   
    11     8    24 1   
    12     8    25 1   
    13     7     9 1   
    14     9    39 1   
    15    10    30 2   
    16     5    11 1   
    17    11    41 1   
    18    11    42 1   
    19    10    12 1   
    20    12    31 2   
    21    11    13 1   
    22    14    16 1   
    23     6    15 1   
    24    16    27 2   
    25    15    17 ar  
    26    17    45 1   
    27    17    18 ar  
    28    18    19 ar  
    29    19    20 ar  
    30    20    21 ar  
    31    15    21 ar  
    32    21    48 1   
    33    19    22 1   
    34    22    49 1   
    35    22    23 1   
    36    23    51 1   
    37    23    24 1   
    38    24    52 1   
    39    25    26 1   
    40    25    55 1   
    41    22    26 1   
    42    26    56 1   
    43     8    27 1   
    44    27    28 1   
    45    28    35 1   
    46    28    29 2   
    47    29    36 1   
    48    14    30 1   
    49    29    30 1   
    50    14    31 1   
    51    31    34 1   
    52    32    58 1   
    53    32    59 1   
    54    33    62 1   
    55    33    63 1   
    56     7    37 1   
    57     9    40 1   
    58    13    43 1   
    59    13    44 1   
    60    18    46 1   
    61    20    47 1   
    62    23    50 1   
    63    24    53 1   
    64    25    54 1   
    65    26    57 1   
    66    32    60 1   
    67     2    61 1   
    68    33    64 1   
@<TRIPOS>SUBSTRUCTURE
     1 LIG         1 TEMP              0 ****  ****    0 ROOT
