@<TRIPOS>MOLECULE
../5ad2_L.pdb
 64 68 0 0 0
SMALL
GASTEIGER

@<TRIPOS>ATOM
      1  N        -41.5350    8.8450  142.3340 N.am  259  LIG259     -0.3020
      2  O        -42.2890   10.8990  143.0620 O.2   259  LIG259     -0.2739
      3  Cl       -40.4630    7.2040  125.4120 C.3   259  LIG259      0.0757
      4  C        -40.3350   10.9370  141.6370 C.3   259  LIG259      0.0847
      5  N1       -40.0070   10.2560  140.3590 N.3   259  LIG259     -0.2870
      6  O1       -39.1930    9.6230  137.5350 O.3   259  LIG259     -0.4907
      7  C1       -41.5070   10.2420  142.3720 C.2   259  LIG259      0.2323
      8  N2       -42.6090    9.1370  129.8760 N.pl3 259  LIG259     -0.3138
      9  C2       -40.9790    8.1550  141.1760 C.3   259  LIG259      0.0272
     10  N3       -41.6500   10.7890  124.7780 N.ar  259  LIG259     -0.1279
     11  C3       -39.7400    8.8290  140.5820 C.3   259  LIG259      0.0155
     12  N4       -41.0640    9.6130  124.3500 N.ar  259  LIG259     -0.1315
     13  C4       -38.9270   10.9110  139.6020 C.3   259  LIG259      0.0339
     14  N5       -41.6340    9.3700  126.4750 N.ar  259  LIG259     -0.1947
     15  C5       -39.2200   10.9430  138.0890 C.3   259  LIG259      0.1023
     16  N6       -41.8190    8.8380  127.7200 N.ar  259  LIG259     -0.1482
     17  C6       -39.8670    9.5040  136.3490 C.ar  259  LIG259      0.1206
     18  C7       -39.8640   10.4710  135.3460 C.ar  259  LIG259     -0.0197
     19  C8       -40.5810   10.2590  134.1630 C.ar  259  LIG259     -0.0549
     20  C9       -41.3160    9.0810  133.9670 C.ar  259  LIG259     -0.0439
     21  C10      -41.2770    8.1010  134.9720 C.ar  259  LIG259     -0.0549
     22  C11      -40.5520    8.3090  136.1480 C.ar  259  LIG259     -0.0197
     23  C12      -42.0960    8.8070  132.6920 C.3   259  LIG259     -0.0130
     24  C13      -42.8430   10.0330  132.1280 C.3   259  LIG259     -0.0303
     25  C14      -43.5750    9.6670  130.8390 C.3   259  LIG259      0.0141
     26  C15      -41.9540    7.9030  130.3350 C.3   259  LIG259      0.0141
     27  C16      -41.1800    8.1940  131.6210 C.3   259  LIG259     -0.0303
     28  C17      -42.4000    9.6290  128.5910 C.ar  259  LIG259      0.1423
     29  C18      -42.8020   11.0360  128.2230 C.ar  259  LIG259     -0.0164
     30  C19      -42.5880   11.4850  126.9800 C.ar  259  LIG259     -0.0123
     31  C20      -41.9840   10.6310  126.0430 C.ar  259  LIG259      0.1781
     32  C21      -41.0660    8.7910  125.3730 C.ar  259  LIG259      0.1642
     33  C22      -42.6040    8.1670  143.0420 C.3   259  LIG259      0.0032
     34  H        -41.7700    8.1040  140.4170 H     259  LIG259      0.0477
     35  H1       -40.7260    7.1310  141.4740 H     259  LIG259      0.0477
     36  H2       -38.8800    8.6850  141.2460 H     259  LIG259      0.0442
     37  H3       -39.5010    8.3180  139.6440 H     259  LIG259      0.0442
     38  H4       -37.9610   10.4290  139.7960 H     259  LIG259      0.0460
     39  H5       -38.8310   11.9590  139.9120 H     259  LIG259      0.0460
     40  H6       -40.1940   11.4240  137.9270 H     259  LIG259      0.0709
     41  H7       -38.4410   11.5430  137.6030 H     259  LIG259      0.0709
     42  H8       -39.2980   11.3900  135.4520 H     259  LIG259      0.0654
     43  H9       -40.5410   11.0280  133.3960 H     259  LIG259      0.0622
     44  H10      -41.8090    7.1600  134.8450 H     259  LIG259      0.0622
     45  H11      -40.5340    7.5400  136.9160 H     259  LIG259      0.0654
     46  H12      -42.8690    8.0630  132.9370 H     259  LIG259      0.0350
     47  H13      -42.1460   10.8510  131.9090 H     259  LIG259      0.0286
     48  H14      -43.5590   10.4110  132.8680 H     259  LIG259      0.0286
     49  H15      -44.3390    8.9060  131.0420 H     259  LIG259      0.0464
     50  H16      -44.1170   10.5390  130.4660 H     259  LIG259      0.0464
     51  H17      -41.2530    7.4960  129.5990 H     259  LIG259      0.0464
     52  H18      -42.7120    7.1300  130.5100 H     259  LIG259      0.0464
     53  H19      -40.7290    7.2650  131.9900 H     259  LIG259      0.0286
     54  H20      -40.3530    8.8810  131.3980 H     259  LIG259      0.0286
     55  H21      -43.2280   11.6840  128.9750 H     259  LIG259      0.0654
     56  H22      -42.8510   12.4930  126.6830 H     259  LIG259      0.0656
     57  H23      -42.8560    8.6960  143.9650 H     259  LIG259      0.0428
     58  H24      -42.2850    7.1520  143.2920 H     259  LIG259      0.0428
     59  H25      -43.4890    8.1320  142.3990 H     259  LIG259      0.0428
     60  C23      -39.1750   11.0830  142.6290 C.3   259  LIG259     -0.0409
     61  H26      -40.7040   11.9380  141.3780 H     259  LIG259      0.0556
     62  H27      -38.8270   10.1160  143.0050 H     259  LIG259      0.0249
     63  H28      -39.4990   11.6620  143.5020 H     259  LIG259      0.0249
     64  H29      -38.3230   11.6110  142.1890 H     259  LIG259      0.0249
@<TRIPOS>BOND
     1    12    10   ar
     2    12    32   ar
     3    10    31   ar
     4    32     3    1
     5    32    14   ar
     6    31    14   ar
     7    31    30   ar
     8    14    16   ar
     9    56    30    1
    10    30    29   ar
    11    16    28   ar
    12    29    28   ar
    13    29    55    1
    14    28     8    1
    15    51    26    1
    16     8    26    1
    17     8    25    1
    18    26    52    1
    19    26    27    1
    20    50    25    1
    21    25    49    1
    22    25    24    1
    23    54    27    1
    24    27    53    1
    25    27    23    1
    26    47    24    1
    27    24    23    1
    28    24    48    1
    29    23    46    1
    30    23    20    1
    31    43    19    1
    32    20    19   ar
    33    20    21   ar
    34    19    18   ar
    35    44    21    1
    36    21    22   ar
    37    18    42    1
    38    18    17   ar
    39    22    17   ar
    40    22    45    1
    41    17     6    1
    42     6    15    1
    43    41    15    1
    44    40    15    1
    45    15    13    1
    46    13    38    1
    47    13    39    1
    48    13     5    1
    49    37    11    1
    50     5    11    1
    51     5     4    1
    52    34     9    1
    53    11     9    1
    54    11    36    1
    55     9    35    1
    56     9     1    1
    57    61     4    1
    58     4     7    1
    59     4    60    1
    60    64    60    1
    61     1     7   am
    62     1    33    1
    63     7     2    2
    64    59    33    1
    65    60    62    1
    66    60    63    1
    67    33    58    1
    68    33    57    1
