@<TRIPOS>MOLECULE
LIG
   70    75     1     0     0
SMALL
bcc


@<TRIPOS>ATOM
      1 N          127.4890   -39.9210    10.0920 nc         1 LIG      -0.358700
      2 N1         127.8810   -40.5640    11.2870 nc         1 LIG       0.056000
      3 N2         129.4570   -40.8610     9.7930 nx         1 LIG      -0.481000
      4 N3         130.6760   -41.1870     9.2100 nd         1 LIG      -0.390000
      5 N4         132.7020   -42.1100     9.4720 nh         1 LIG      -0.700300
      6 N5         143.9090   -39.8770    10.4760 nh         1 LIG      -0.748300
      7 N6         145.0570   -40.9300     8.8070 nc         1 LIG      -0.519800
      8 N7         146.0880   -41.8530     8.5130 na         1 LIG       0.098300
      9 N8         147.7350   -43.2800     8.7450 nd         1 LIG      -0.049000
     10 N9         147.3970   -43.1780     7.3770 nd         1 LIG      -0.339700
     11 C          127.5820   -38.6810     7.5880 c3         1 LIG       0.125700
     12 C1         128.4830   -40.0930     9.2540 cd         1 LIG       0.699500
     13 C2         129.0720   -41.0950    11.0860 cd         1 LIG      -0.132000
     14 C3         129.9560   -41.8530    11.8930 cd         1 LIG       0.095000
     15 C4         131.1570   -42.1990    11.3660 cc         1 LIG      -0.307300
     16 C5         131.4520   -41.8510    10.0170 cc         1 LIG       0.797200
     17 C6         133.6650   -43.0440    10.0830 c6         1 LIG       0.178300
     18 C7         135.0570   -42.4070    10.2650 c6         1 LIG      -0.102400
     19 C8         133.1730   -41.4500     8.2410 c6         1 LIG       0.178300
     20 C9         134.5470   -40.7970     8.4330 c6         1 LIG      -0.102400
     21 C10        135.5660   -41.8120     8.9510 c6         1 LIG      -0.007400
     22 C11        137.0120   -41.3480     8.9840 ca         1 LIG      -0.144300
     23 C12        137.3820   -40.1190     9.5270 ca         1 LIG      -0.092500
     24 C13        138.7120   -39.7280     9.5830 ca         1 LIG      -0.167000
     25 C14        138.0180   -42.1850     8.5160 ca         1 LIG      -0.092500
     26 C15        139.3520   -41.8130     8.5770 ca         1 LIG      -0.167000
     27 C16        139.7010   -40.5760     9.0950 ca         1 LIG       0.142100
     28 C17        141.6480   -39.2240     9.6180 c3         1 LIG       0.096400
     29 C18        143.1460   -39.2590     9.3860 c3         1 LIG       0.194800
     30 C19        144.0430   -39.0960    11.7000 c3         1 LIG       0.178100
     31 C20        144.9340   -40.7180    10.0740 cd         1 LIG       0.613200
     32 C21        145.7230   -41.3240    11.0900 cd         1 LIG      -0.256300
     33 C22        146.7170   -42.1940    10.7650 cc         1 LIG      -0.013000
     34 C23        146.8910   -42.5150     9.4080 cc         1 LIG      -0.147300
     35 C24        146.5290   -42.2010     7.3030 cc         1 LIG       0.484100
     36 C25        145.9700   -40.3820     5.8900 c3         1 LIG       0.110700
     37 O          128.5760   -39.6510     8.0020 os         1 LIG      -0.384400
     38 O1         141.0660   -40.4030     9.0360 os         1 LIG      -0.310900
     39 O2         145.8690   -41.7930     6.2210 os         1 LIG      -0.372400
     40 H01        129.9790   -41.5430     9.2620 hn         1 LIG       0.487800
     41 H02        129.6800   -42.1490    12.9050 ha         1 LIG       0.209000
     42 H03        131.8880   -42.7380    11.9690 ha         1 LIG       0.193000
     43 H04        145.5300   -41.0900    12.1370 ha         1 LIG       0.161000
     44 H05        147.3580   -42.6280    11.5320 ha         1 LIG       0.176000
     45 H          127.7580   -38.4020     6.5700 h1         1 LIG       0.081033
     46 H1         127.6480   -37.8140     8.2120 h1         1 LIG       0.081033
     47 H2         126.6060   -39.1110     7.6770 h1         1 LIG       0.081033
     48 H3         133.7590   -43.9040     9.4530 h1         1 LIG       0.083200
     49 H4         133.2960   -43.3100    11.0510 h1         1 LIG       0.083200
     50 H5         134.9930   -41.6310    10.9990 hc         1 LIG       0.078200
     51 H6         135.7400   -43.1670    10.5810 hc         1 LIG       0.078200
     52 H7         133.2430   -42.1800     7.4620 h1         1 LIG       0.083200
     53 H8         132.4730   -40.6820     7.9880 h1         1 LIG       0.083200
     54 H9         134.4590   -39.9970     9.1390 hc         1 LIG       0.078200
     55 H10        134.8840   -40.4260     7.4880 hc         1 LIG       0.078200
     56 H11        135.6300   -42.5930     8.2220 hc         1 LIG       0.065700
     57 H12        136.6530   -39.4880     9.8940 ha         1 LIG       0.129000
     58 H13        138.9670   -38.8120     9.9850 ha         1 LIG       0.162000
     59 H14        137.7670   -43.1020     8.1150 ha         1 LIG       0.129000
     60 H15        140.0840   -42.4560     8.2370 ha         1 LIG       0.162000
     61 H16        141.4460   -39.2030    10.6690 h1         1 LIG       0.047200
     62 H17        141.2290   -38.3490     9.1670 h1         1 LIG       0.047200
     63 H18        143.4900   -38.2530     9.2640 h1         1 LIG       0.085700
     64 H19        143.3090   -39.8610     8.5170 h1         1 LIG       0.085700
     65 H20        143.1600   -38.5100    11.8480 h1         1 LIG       0.048033
     66 H21        144.8910   -38.4490    11.6190 h1         1 LIG       0.048033
     67 H22        144.1760   -39.7560    12.5310 h1         1 LIG       0.048033
     68 H23        145.4000   -40.1810     5.0070 h1         1 LIG       0.056367
     69 H24        146.9950   -40.1280     5.7180 h1         1 LIG       0.056367
     70 H25        145.5890   -39.7970     6.7010 h1         1 LIG       0.056367
@<TRIPOS>BOND
     1     1     2 1   
     2     3    13 1   
     3     3    40 1   
     4     3     4 1   
     5     4    16 2   
     6     5    16 1   
     7     5    17 1   
     8     6    30 1   
     9     7    31 2   
    10     7     8 1   
    11     8    34 1   
    12     9    34 2   
    13     9    10 1   
    14    11    37 1   
    15    11    45 1   
    16    11    46 1   
    17    11    47 1   
    18     1    12 2   
    19     3    12 1   
    20     2    13 2   
    21    13    14 1   
    22    14    41 1   
    23    14    15 2   
    24    15    42 1   
    25    15    16 1   
    26    17    18 1   
    27    17    48 1   
    28    17    49 1   
    29    18    50 1   
    30    18    51 1   
    31     5    19 1   
    32    19    20 1   
    33    19    52 1   
    34    19    53 1   
    35    20    21 1   
    36    20    54 1   
    37    20    55 1   
    38    18    21 1   
    39    21    22 1   
    40    21    56 1   
    41    22    23 ar  
    42    23    24 ar  
    43    23    57 1   
    44    24    58 1   
    45    22    25 ar  
    46    25    26 ar  
    47    25    59 1   
    48    26    27 ar  
    49    26    60 1   
    50    24    27 ar  
    51    28    61 1   
    52    28    62 1   
    53     6    29 1   
    54    28    29 1   
    55    29    63 1   
    56    29    64 1   
    57    30    65 1   
    58    30    66 1   
    59    30    67 1   
    60     6    31 1   
    61    31    32 1   
    62    32    43 1   
    63    32    33 2   
    64    33    44 1   
    65    33    34 1   
    66     8    35 1   
    67    10    35 2   
    68    36    39 1   
    69    36    68 1   
    70    36    69 1   
    71    36    70 1   
    72    12    37 1   
    73    27    38 1   
    74    28    38 1   
    75    35    39 1   
@<TRIPOS>SUBSTRUCTURE
     1 LIG         1 TEMP              0 ****  ****    0 ROOT
