@<TRIPOS>MOLECULE
../5ad3_L.pdb
 72 77 0 0 0
SMALL
GASTEIGER

@<TRIPOS>ATOM
      1 C         127.5820  -38.6810    7.5880 C.3     1  UNL1        0.0820
      2 O         128.5760  -39.6510    8.0020 O.3     1  UNL1       -0.4647
      3 C         128.4830  -40.0930    9.2540 C.ar    1  UNL1        0.3397
      4 N         127.4890  -39.9210   10.0920 N.ar    1  UNL1       -0.0901
      5 N         127.8810  -40.5640   11.2870 N.ar    1  UNL1       -0.1247
      6 N         129.4570  -40.8610    9.7930 N.ar    1  UNL1       -0.1607
      7 C         129.0720  -41.0950   11.0860 C.ar    1  UNL1        0.1814
      8 C         129.9560  -41.8530   11.8930 C.ar    1  UNL1       -0.0122
      9 C         131.1570  -42.1990   11.3660 C.ar    1  UNL1       -0.0164
     10 N         130.6760  -41.1870    9.2100 N.ar    1  UNL1       -0.1456
     11 C         131.4520  -41.8510   10.0170 C.ar    1  UNL1        0.1424
     12 N         132.7020  -42.1100    9.4720 N.pl3   1  UNL1       -0.3138
     13 C         133.6650  -43.0440   10.0830 C.3     1  UNL1        0.0141
     14 C         135.0570  -42.4070   10.2650 C.3     1  UNL1       -0.0303
     15 C         133.1730  -41.4500    8.2410 C.3     1  UNL1        0.0141
     16 C         134.5470  -40.7970    8.4330 C.3     1  UNL1       -0.0303
     17 C         135.5660  -41.8120    8.9510 C.3     1  UNL1       -0.0130
     18 C         137.0120  -41.3480    8.9840 C.ar    1  UNL1       -0.0439
     19 C         137.3820  -40.1190    9.5270 C.ar    1  UNL1       -0.0549
     20 C         138.7120  -39.7280    9.5830 C.ar    1  UNL1       -0.0197
     21 C         138.0180  -42.1850    8.5160 C.ar    1  UNL1       -0.0549
     22 C         139.3520  -41.8130    8.5770 C.ar    1  UNL1       -0.0197
     23 C         139.7010  -40.5760    9.0950 C.ar    1  UNL1        0.1207
     24 O         141.0660  -40.4030    9.0360 O.3     1  UNL1       -0.4882
     25 C         141.6480  -39.2240    9.6180 C.3     1  UNL1        0.1253
     26 C         143.1460  -39.2590    9.3860 C.3     1  UNL1        0.1141
     27 N         143.9090  -39.8770   10.4760 N.pl3   1  UNL1       -0.2220
     28 C         144.0430  -39.0960   11.7000 C.3     1  UNL1        0.0696
     29 C         144.9340  -40.7180   10.0740 C.2     1  UNL1        0.2964
     30 C         145.7230  -41.3240   11.0900 C.2     1  UNL1        0.0341
     31 C         146.7170  -42.1940   10.7650 C.2     1  UNL1        0.0402
     32 N         145.0570  -40.9300    8.8070 N.pl3   1  UNL1       -0.0548
     33 N         146.0880  -41.8530    8.5130 N.pl3   1  UNL1        0.0832
     34 C         146.8910  -42.5150    9.4080 C.2     1  UNL1        0.3680
     35 N         147.7350  -43.2800    8.7450 N.pl3   1  UNL1        0.0124
     36 N         147.3970  -43.1780    7.3770 N.2     1  UNL1        0.0152
     37 C         146.5290  -42.2010    7.3030 C.2     1  UNL1        0.6217
     38 O         145.8690  -41.7930    6.2210 O.2     1  UNL1       -0.4106
     39 C         145.9700  -40.3820    5.8900 C.3     1  UNL1        0.0884
     40 H         127.7580  -38.4023    6.5700 H       1  UNL1        0.0661
     41 H         127.6482  -37.8141    8.2117 H       1  UNL1        0.0661
     42 H         126.6060  -39.1105    7.6766 H       1  UNL1        0.0661
     43 H         129.6945  -42.1330   12.8513 H       1  UNL1        0.0656
     44 H         131.8495  -42.7089   11.9365 H       1  UNL1        0.0654
     45 H         133.7589  -43.9036    9.4528 H       1  UNL1        0.0464
     46 H         133.2959  -43.3102   11.0514 H       1  UNL1        0.0464
     47 H         134.9929  -41.6307   10.9986 H       1  UNL1        0.0286
     48 H         135.7402  -43.1674   10.5811 H       1  UNL1        0.0286
     49 H         133.2427  -42.1801    7.4619 H       1  UNL1        0.0464
     50 H         132.4728  -40.6816    7.9877 H       1  UNL1        0.0464
     51 H         134.4593  -39.9974    9.1386 H       1  UNL1        0.0286
     52 H         134.8842  -40.4261    7.4877 H       1  UNL1        0.0286
     53 H         135.6297  -42.5927    8.2221 H       1  UNL1        0.0350
     54 H         136.6529  -39.4878    9.8944 H       1  UNL1        0.0622
     55 H         138.9665  -38.8122    9.9849 H       1  UNL1        0.0654
     56 H         137.7668  -43.1021    8.1149 H       1  UNL1        0.0622
     57 H         140.0840  -42.4562    8.2372 H       1  UNL1        0.0654
     58 H         141.4463  -39.2035   10.6686 H       1  UNL1        0.0735
     59 H         141.2287  -38.3488    9.1674 H       1  UNL1        0.0735
     60 H         143.4902  -38.2533    9.2636 H       1  UNL1        0.0760
     61 H         143.3086  -39.8614    8.5168 H       1  UNL1        0.0760
     62 H         143.1599  -38.5101   11.8477 H       1  UNL1        0.0689
     63 H         144.8911  -38.4487   11.6190 H       1  UNL1        0.0689
     64 H         144.1763  -39.7561   12.5315 H       1  UNL1        0.0689
     65 H         145.5402  -41.1022   12.0812 H       1  UNL1        0.0699
     66 H         147.3237  -42.6050   11.4916 H       1  UNL1        0.0701
     67 H         144.4966  -40.4982    8.1223 H       1  UNL1        0.3489
     68 H         148.4627  -43.8199    9.1299 H       1  UNL1        0.3769
     69 H         147.7417  -43.7263    6.6355 H       1  UNL1        0.5179
     70 H         145.4002  -40.1811    5.0069 H       1  UNL1        0.0663
     71 H         146.9952  -40.1284    5.7183 H       1  UNL1        0.0663
     72 H         145.5889  -39.7972    6.7010 H       1  UNL1        0.0663
@<TRIPOS>UNITY_ATOM_ATTR
36 1
charge 1
@<TRIPOS>BOND
     1    39    38    1
     2    38    37    1
     3    37    36    2
     4    37    33    1
     5    36    35    1
     6     1     2    1
     7     2     3    1
     8    15    16    1
     9    15    12    1
    10    16    17    1
    11    33    32    1
    12    33    34    1
    13    21    22   ar
    14    21    18   ar
    15    22    23   ar
    16    35    34    1
    17    32    29    1
    18    17    18    1
    19    17    14    1
    20    18    19   ar
    21    24    23    1
    22    24    25    1
    23    23    20   ar
    24    10     6   ar
    25    10    11   ar
    26     3     6   ar
    27     3     4   ar
    28    26    25    1
    29    26    27    1
    30    34    31    2
    31    12    11    1
    32    12    13    1
    33    19    20   ar
    34     6     7   ar
    35    11     9   ar
    36    29    27    1
    37    29    30    2
    38    13    14    1
    39     4     5   ar
    40    27    28    1
    41    31    30    1
    42     7     5   ar
    43     7     8   ar
    44     9     8   ar
    45     1    40    1
    46     1    41    1
    47     1    42    1
    48     8    43    1
    49     9    44    1
    50    13    45    1
    51    13    46    1
    52    14    47    1
    53    14    48    1
    54    15    49    1
    55    15    50    1
    56    16    51    1
    57    16    52    1
    58    17    53    1
    59    19    54    1
    60    20    55    1
    61    21    56    1
    62    22    57    1
    63    25    58    1
    64    25    59    1
    65    26    60    1
    66    26    61    1
    67    28    62    1
    68    28    63    1
    69    28    64    1
    70    30    65    1
    71    31    66    1
    72    32    67    1
    73    35    68    1
    74    36    69    1
    75    39    70    1
    76    39    71    1
    77    39    72    1
