# created with PyMOL 2.5.5
@<TRIPOS>MOLECULE
../5ad3_L.pdb
70 75 1                 
SMALL
USER_CHARGES
@<TRIPOS>ATOM
1	   N	127.489	-39.921	10.092	N.2	1	UNL1	-0.090	
2	   N	127.881	-40.564	11.287	N.2	1	UNL1	-0.125	
3	   N	129.457	-40.861	9.793	N.4	1	UNL1	-0.161	
4	   N	130.676	-41.187	9.210	N.2	1	UNL1	-0.146	
5	   N	132.702	-42.110	9.472	N.pl3	1	UNL1	-0.314	
6	   N	143.909	-39.877	10.476	N.pl3	1	UNL1	-0.222	
7	   N	145.057	-40.930	8.807	N.2	1	UNL1	-0.055	
8	   N	146.088	-41.853	8.513	N.pl3	1	UNL1	0.083	
9	   N	147.735	-43.280	8.745	N.2	1	UNL1	0.012	
10	   N	147.397	-43.178	7.377	N.2	1	UNL1	0.015	
11	   C	127.582	-38.681	7.588	C.3	1	UNL1	0.082	
12	   C	128.483	-40.093	9.254	C.2	1	UNL1	0.340	
13	   C	129.072	-41.095	11.086	C.2	1	UNL1	0.181	
14	   C	129.956	-41.853	11.893	C.2	1	UNL1	-0.012	
15	   C	131.157	-42.199	11.366	C.2	1	UNL1	-0.016	
16	   C	131.452	-41.851	10.017	C.2	1	UNL1	0.142	
17	   C	133.665	-43.044	10.083	C.3	1	UNL1	0.014	
18	   C	135.057	-42.407	10.265	C.3	1	UNL1	-0.030	
19	   C	133.173	-41.450	8.241	C.3	1	UNL1	0.014	
20	   C	134.547	-40.797	8.433	C.3	1	UNL1	-0.030	
21	   C	135.566	-41.812	8.951	C.3	1	UNL1	-0.013	
22	   C	137.012	-41.348	8.984	C.2	1	UNL1	-0.044	
23	   C	137.382	-40.119	9.527	C.2	1	UNL1	-0.055	
24	   C	138.712	-39.728	9.583	C.2	1	UNL1	-0.020	
25	   C	138.018	-42.185	8.516	C.2	1	UNL1	-0.055	
26	   C	139.352	-41.813	8.577	C.2	1	UNL1	-0.020	
27	   C	139.701	-40.576	9.095	C.2	1	UNL1	0.121	
28	   C	141.648	-39.224	9.618	C.3	1	UNL1	0.125	
29	   C	143.146	-39.259	9.386	C.3	1	UNL1	0.114	
30	   C	144.043	-39.096	11.700	C.3	1	UNL1	0.070	
31	   C	144.934	-40.718	10.074	C.2	1	UNL1	0.296	
32	   C	145.723	-41.324	11.090	C.2	1	UNL1	0.034	
33	   C	146.717	-42.194	10.765	C.2	1	UNL1	0.040	
34	   C	146.891	-42.515	9.408	C.2	1	UNL1	0.368	
35	   C	146.529	-42.201	7.303	C.2	1	UNL1	0.622	
36	   C	145.970	-40.382	5.890	C.3	1	UNL1	0.088	
37	   O	128.576	-39.651	8.002	O.3	1	UNL1	-0.465	
38	   O	141.066	-40.403	9.036	O.3	1	UNL1	-0.488	
39	   O	145.869	-41.793	6.221	O.3	1	UNL1	-0.411	
40	 H01	129.979	-41.543	9.262	 H	1	UNL1	0.000	
41	 H02	129.680	-42.149	12.905	 H	1	UNL1	0.000	
42	 H03	131.888	-42.738	11.969	 H	1	UNL1	0.000	
43	 H04	145.530	-41.090	12.137	 H	1	UNL1	0.000	
44	 H05	147.358	-42.628	11.532	 H	1	UNL1	0.000	
45	   H	127.758	-38.402	6.570	 H	1	UNL1	0.066	
46	   H	127.648	-37.814	8.212	 H	1	UNL1	0.066	
47	   H	126.606	-39.111	7.677	 H	1	UNL1	0.066	
48	   H	133.759	-43.904	9.453	 H	1	UNL1	0.046	
49	   H	133.296	-43.310	11.051	 H	1	UNL1	0.046	
50	   H	134.993	-41.631	10.999	 H	1	UNL1	0.029	
51	   H	135.740	-43.167	10.581	 H	1	UNL1	0.029	
52	   H	133.243	-42.180	7.462	 H	1	UNL1	0.046	
53	   H	132.473	-40.682	7.988	 H	1	UNL1	0.046	
54	   H	134.459	-39.997	9.139	 H	1	UNL1	0.029	
55	   H	134.884	-40.426	7.488	 H	1	UNL1	0.029	
56	   H	135.630	-42.593	8.222	 H	1	UNL1	0.035	
57	   H	136.653	-39.488	9.894	 H	1	UNL1	0.062	
58	   H	138.967	-38.812	9.985	 H	1	UNL1	0.065	
59	   H	137.767	-43.102	8.115	 H	1	UNL1	0.062	
60	   H	140.084	-42.456	8.237	 H	1	UNL1	0.065	
61	   H	141.446	-39.203	10.669	 H	1	UNL1	0.073	
62	   H	141.229	-38.349	9.167	 H	1	UNL1	0.073	
63	   H	143.490	-38.253	9.264	 H	1	UNL1	0.076	
64	   H	143.309	-39.861	8.517	 H	1	UNL1	0.076	
65	   H	143.160	-38.510	11.848	 H	1	UNL1	0.069	
66	   H	144.891	-38.449	11.619	 H	1	UNL1	0.069	
67	   H	144.176	-39.756	12.531	 H	1	UNL1	0.069	
68	   H	145.400	-40.181	5.007	 H	1	UNL1	0.066	
69	   H	146.995	-40.128	5.718	 H	1	UNL1	0.066	
70	   H	145.589	-39.797	6.701	 H	1	UNL1	0.066	
@<TRIPOS>BOND
1 1 2 1
2 3 13 1
3 3 40 1
4 3 4 1
5 4 16 2
6 5 16 1
7 5 17 1
8 6 30 1
9 7 31 2
10 7 8 1
11 8 34 1
12 9 34 2
13 9 10 1
14 11 37 1
15 11 45 1
16 11 46 1
17 11 47 1
18 1 12 2
19 3 12 1
20 2 13 2
21 13 14 1
22 14 41 1
23 14 15 2
24 15 42 1
25 15 16 1
26 17 18 1
27 17 48 1
28 17 49 1
29 18 50 1
30 18 51 1
31 5 19 1
32 19 20 1
33 19 52 1
34 19 53 1
35 20 21 1
36 20 54 1
37 20 55 1
38 18 21 1
39 21 22 1
40 21 56 1
41 22 23 ar
42 23 24 ar
43 23 57 1
44 24 58 1
45 22 25 ar
46 25 26 ar
47 25 59 1
48 26 27 ar
49 26 60 1
50 24 27 ar
51 28 61 1
52 28 62 1
53 6 29 1
54 28 29 1
55 29 63 1
56 29 64 1
57 30 65 1
58 30 66 1
59 30 67 1
60 6 31 1
61 31 32 1
62 32 43 1
63 32 33 2
64 33 44 1
65 33 34 1
66 8 35 1
67 10 35 2
68 36 39 1
69 36 68 1
70 36 69 1
71 36 70 1
72 12 37 1
73 27 38 1
74 28 38 1
75 35 39 1
@<TRIPOS>SUBSTRUCTURE
1	UNL1	1	GROUP	1 ****	UNL
