@<TRIPOS>MOLECULE
LIG
   32    34     1     0     0
SMALL
bcc


@<TRIPOS>ATOM
      1 C1          45.7530   130.6640    15.0700 c6         1 LIG       0.054700
      2 C2          46.9080   131.5790    14.6210 c6         1 LIG      -0.089400
      3 C3          47.4300   131.1270    13.2540 c6         1 LIG      -0.156400
      4 C4          47.8270   129.6590    13.2230 c          1 LIG       0.701500
      5 N5          47.1410   128.8400    14.1360 ns         1 LIG      -0.599500
      6 C6          46.1810   129.1900    15.0930 c          1 LIG       0.673500
      7 C7          43.4860   131.7580    17.7490 ca         1 LIG      -0.114600
      8 C8          44.5900   131.3770    18.5280 ca         1 LIG      -0.145300
      9 C9          45.7040   130.8900    17.6330 c5         1 LIG       0.131300
     10 N10         45.1290   131.0510    16.3040 n          1 LIG      -0.469800
     11 C11         43.8140   131.5260    16.3130 c          1 LIG       0.721100
     12 C12         42.2700   132.3800    19.7110 ca         1 LIG      -0.107000
     13 C13         43.3640   131.9960    20.5060 ca         1 LIG      -0.157000
     14 C14         44.5570   131.4800    19.9350 ca         1 LIG       0.150600
     15 C15         42.3060   132.2640    18.3110 ca         1 LIG      -0.092000
     16 O16         43.1260   131.7000    15.3110 o          1 LIG      -0.602500
     17 N17         45.6600   131.1430    20.7140 nv         1 LIG      -0.813200
     18 O18         45.7370   128.3610    15.8720 o          1 LIG      -0.604500
     19 O19         48.6630   129.1840    12.4720 o          1 LIG      -0.602500
     20 H01         46.5010   130.7970    20.2750 hn         1 LIG       0.392300
     21 H02         45.6190   131.2440    21.7180 hn         1 LIG       0.392300
     22 H           44.9940   130.7880    14.3260 h1         1 LIG       0.113700
     23 H1          46.5550   132.5870    14.5510 hc         1 LIG       0.068700
     24 H2          47.7010   131.5220    15.3370 hc         1 LIG       0.068700
     25 H3          46.6620   131.2880    12.5260 hc         1 LIG       0.089700
     26 H4          48.3090   131.7000    13.0420 hc         1 LIG       0.089700
     27 H5          47.3680   127.8830    14.0970 hn         1 LIG       0.338500
     28 H6          46.5840   131.4880    17.7490 h1         1 LIG       0.067700
     29 H7          46.0170   129.8890    17.8460 h1         1 LIG       0.067700
     30 H8          41.4230   132.7550    20.1650 ha         1 LIG       0.139000
     31 H9          43.2980   132.0920    21.5310 ha         1 LIG       0.137000
     32 H10         41.5020   132.5380    17.7250 ha         1 LIG       0.156000
@<TRIPOS>BOND
     1     1     2 1   
     2     1     6 1   
     3     1    10 1   
     4     1    22 1   
     5     2     3 1   
     6     2    23 1   
     7     2    24 1   
     8     3     4 1   
     9     3    25 1   
    10     3    26 1   
    11     4     5 1   
    12     4    19 2   
    13     5     6 1   
    14     5    27 1   
    15     6    18 2   
    16     7     8 ar  
    17     7    11 1   
    18     7    15 ar  
    19     8     9 1   
    20     8    14 ar  
    21     9    10 1   
    22     9    28 1   
    23     9    29 1   
    24    10    11 1   
    25    11    16 2   
    26    12    13 ar  
    27    12    15 ar  
    28    12    30 1   
    29    13    14 ar  
    30    13    31 1   
    31    14    17 1   
    32    15    32 1   
    33    17    20 1   
    34    17    21 1   
@<TRIPOS>SUBSTRUCTURE
     1 LIG         1 TEMP              0 ****  ****    0 ROOT
