@<TRIPOS>MOLECULE
../5fqd_L.pdb
 32 34 0 0 0
SMALL
GASTEIGER

@<TRIPOS>ATOM
      1  C1        45.7530  130.6640   15.0700 C.3   686  LIG686      0.1036
      2  C2        46.9080  131.5790   14.6210 C.3   686  LIG686     -0.0175
      3  C3        47.4300  131.1270   13.2540 C.3   686  LIG686      0.0265
      4  C4        47.8270  129.6590   13.2230 C.2   686  LIG686      0.2193
      5  N5        47.1410  128.8400   14.1360 N.am  686  LIG686     -0.2548
      6  C6        46.1810  129.1900   15.0930 C.2   686  LIG686      0.2398
      7  C7        43.4860  131.7580   17.7490 C.ar  686  LIG686      0.0433
      8  C8        44.5900  131.3770   18.5280 C.ar  686  LIG686      0.0026
      9  C9        45.7040  130.8900   17.6330 C.3   686  LIG686      0.0433
     10  N10       45.1290  131.0510   16.3040 N.am  686  LIG686     -0.2815
     11  C11       43.8140  131.5260   16.3130 C.2   686  LIG686      0.2479
     12  C12       42.2700  132.3800   19.7110 C.ar  686  LIG686     -0.0593
     13  C13       43.3640  131.9960   20.5060 C.ar  686  LIG686     -0.0407
     14  C14       44.5570  131.4800   19.9350 C.ar  686  LIG686      0.0300
     15  C15       42.3060  132.2640   18.3110 C.ar  686  LIG686     -0.0492
     16  O16       43.1260  131.7000   15.3110 O.2   686  LIG686     -0.2699
     17  N17       45.6600  131.1430   20.7140 N.pl3 686  LIG686     -0.3577
     18  O18       45.7370  128.3610   15.8720 O.2   686  LIG686     -0.2734
     19  O19       48.6630  129.1840   12.4720 O.2   686  LIG686     -0.2754
     20 H          44.9943  130.7875   14.3256 H     686  LIG686      0.0597
     21 H          46.5554  132.5868   14.5506 H     686  LIG686      0.0292
     22 H          47.7010  131.5224   15.3371 H     686  LIG686      0.0292
     23 H          46.6623  131.2877   12.5261 H     686  LIG686      0.0359
     24 H          48.3086  131.6999   13.0424 H     686  LIG686      0.0359
     25 H          47.3681  127.8828   14.0970 H     686  LIG686      0.1575
     26 H          46.5837  131.4878   17.7494 H     686  LIG686      0.0515
     27 H          46.0172  129.8892   17.8455 H     686  LIG686      0.0515
     28 H          41.4226  132.7550   20.1651 H     686  LIG686      0.0618
     29 H          43.2982  132.0917   21.5314 H     686  LIG686      0.0636
     30 H          41.5021  132.5382   17.7248 H     686  LIG686      0.0625
     31 H          46.4732  130.7873   20.2881 H     686  LIG686      0.1423
     32 H          45.6270  131.2603   21.6909 H     686  LIG686      0.1423
@<TRIPOS>BOND
     1    19     4    2
     2     4     3    1
     3     4     5   am
     4     3     2    1
     5     5     6   am
     6     2     1    1
     7     1     6    1
     8     1    10    1
     9     6    18    2
    10    16    11    2
    11    10    11   am
    12    10     9    1
    13    11     7    1
    14     9     8    1
    15     7    15   ar
    16     7     8   ar
    17    15    12   ar
    18     8    14   ar
    19    12    13   ar
    20    14    13   ar
    21    14    17    1
    22     1    20    1
    23     2    21    1
    24     2    22    1
    25     3    23    1
    26     3    24    1
    27     5    25    1
    28     9    26    1
    29     9    27    1
    30    12    28    1
    31    13    29    1
    32    15    30    1
    33    17    31    1
    34    17    32    1
