# created with PyMOL 2.5.5
@<TRIPOS>MOLECULE
../5fqd_L.pdb
32 34 1                 
SMALL
USER_CHARGES
@<TRIPOS>ATOM
1	  C1	45.753	130.664	15.070	C.3	1	LIG686	0.104	
2	  C2	46.908	131.579	14.621	C.3	1	LIG686	-0.018	
3	  C3	47.430	131.127	13.254	C.3	1	LIG686	0.026	
4	  C4	47.827	129.659	13.223	C.2	1	LIG686	0.219	
5	  N5	47.141	128.840	14.136	N.pl3	1	LIG686	-0.255	
6	  C6	46.181	129.190	15.093	C.2	1	LIG686	0.240	
7	  C7	43.486	131.758	17.749	C.2	1	LIG686	0.043	
8	  C8	44.590	131.377	18.528	C.2	1	LIG686	0.003	
9	  C9	45.704	130.890	17.633	C.3	1	LIG686	0.043	
10	 N10	45.129	131.051	16.304	N.pl3	1	LIG686	-0.282	
11	 C11	43.814	131.526	16.313	C.2	1	LIG686	0.248	
12	 C12	42.270	132.380	19.711	C.2	1	LIG686	-0.059	
13	 C13	43.364	131.996	20.506	C.2	1	LIG686	-0.041	
14	 C14	44.557	131.480	19.935	C.2	1	LIG686	0.030	
15	 C15	42.306	132.264	18.311	C.2	1	LIG686	-0.049	
16	 O16	43.126	131.700	15.311	O.2	1	LIG686	-0.270	
17	 N17	45.660	131.143	20.714	N.pl3	1	LIG686	-0.358	
18	 O18	45.737	128.361	15.872	O.2	1	LIG686	-0.273	
19	 O19	48.663	129.184	12.472	O.2	1	LIG686	-0.275	
20	 H01	46.501	130.797	20.275	 H	1	LIG686	0.000	
21	 H02	45.619	131.244	21.718	 H	1	LIG686	0.000	
22	   H	44.994	130.788	14.326	 H	1	LIG686	0.060	
23	   H	46.555	132.587	14.551	 H	1	LIG686	0.029	
24	   H	47.701	131.522	15.337	 H	1	LIG686	0.029	
25	   H	46.662	131.288	12.526	 H	1	LIG686	0.036	
26	   H	48.309	131.700	13.042	 H	1	LIG686	0.036	
27	   H	47.368	127.883	14.097	 H	1	LIG686	0.157	
28	   H	46.584	131.488	17.749	 H	1	LIG686	0.052	
29	   H	46.017	129.889	17.846	 H	1	LIG686	0.052	
30	   H	41.423	132.755	20.165	 H	1	LIG686	0.062	
31	   H	43.298	132.092	21.531	 H	1	LIG686	0.064	
32	   H	41.502	132.538	17.725	 H	1	LIG686	0.062	
@<TRIPOS>BOND
1 1 2 1
2 1 6 1
3 1 10 1
4 1 22 1
5 2 3 1
6 2 23 1
7 2 24 1
8 3 4 1
9 3 25 1
10 3 26 1
11 4 5 1
12 4 19 2
13 5 6 1
14 5 27 1
15 6 18 2
16 7 8 ar
17 7 11 1
18 7 15 ar
19 8 9 1
20 8 14 ar
21 9 10 1
22 9 28 1
23 9 29 1
24 10 11 1
25 11 16 2
26 12 13 ar
27 12 15 ar
28 12 30 1
29 13 14 ar
30 13 31 1
31 14 17 1
32 15 32 1
33 17 20 1
34 17 21 1
@<TRIPOS>SUBSTRUCTURE
1	LIG686	1	GROUP	1 ****	LIG
