@<TRIPOS>MOLECULE
../5j89_L.pdb
 62 64 0 0 0
SMALL
GASTEIGER

@<TRIPOS>ATOM
      1 O           9.1080  -17.9900  180.5210 O.2     1  UNL1       -0.4736
      2 O           1.1850  -20.5560  180.7720 O.2     1  UNL1       -0.2761
      3 C           2.3680  -20.8840  180.7110 C.2     1  UNL1        0.2101
      4 C           2.8230  -22.2030  180.0940 C.3     1  UNL1        0.0122
      5 N           3.3600  -20.0730  181.2280 N.am    1  UNL1       -0.3105
      6 C           4.7960  -20.2320  181.0950 C.3     1  UNL1        0.0516
      7 C           5.3890  -19.5450  179.8540 C.3     1  UNL1       -0.0177
      8 N           6.8200  -19.7810  179.7800 N.4     1  UNL1        0.2289
      9 C           7.4460  -19.1900  178.5950 C.3     1  UNL1       -0.0175
     10 C           8.9440  -19.3670  178.6010 C.3     1  UNL1        0.1055
     11 C           9.7510  -18.7380  179.5810 C.2     1  UNL1        0.2574
     12 C           9.9180  -17.3300  181.4960 C.3     1  UNL1        0.0811
     13 N          11.0800  -18.8380  179.6450 N.2     1  UNL1       -0.3368
     14 C           9.6370  -20.1460  177.6580 C.2     1  UNL1       -0.0599
     15 C          11.0320  -20.2690  177.6980 C.2     1  UNL1        0.0100
     16 C          11.7090  -19.5820  178.7260 C.2     1  UNL1        0.2705
     17 O          13.0580  -19.6860  178.7790 O.2     1  UNL1       -0.4630
     18 C          13.7290  -18.9780  179.8210 C.3     1  UNL1        0.1175
     19 C          15.2180  -19.2020  179.7250 C.ar    1  UNL1       -0.0068
     20 C          15.7670  -19.9850  178.6960 C.ar    1  UNL1       -0.0551
     21 C          17.1550  -20.1680  178.6120 C.ar    1  UNL1       -0.0608
     22 C          17.9920  -19.5790  179.5660 C.ar    1  UNL1       -0.0538
     23 C          17.4590  -18.8000  180.6190 C.ar    1  UNL1       -0.0146
     24 C          16.0560  -18.5910  180.6950 C.ar    1  UNL1       -0.0364
     25 C          15.4340  -17.7060  181.7500 C.3     1  UNL1       -0.0388
     26 C          18.4050  -18.2260  181.6180 C.ar    1  UNL1       -0.0176
     27 C          18.2900  -18.5230  182.9950 C.ar    1  UNL1       -0.0540
     28 C          19.2080  -18.0060  183.9220 C.ar    1  UNL1       -0.0612
     29 C          20.2590  -17.1790  183.4890 C.ar    1  UNL1       -0.0617
     30 C          20.3890  -16.8800  182.1230 C.ar    1  UNL1       -0.0612
     31 C          19.4720  -17.4010  181.1960 C.ar    1  UNL1       -0.0540
     32 H           1.9714  -22.7394  179.7309 H       1  UNL1        0.0322
     33 H           3.3244  -22.7894  180.8354 H       1  UNL1        0.0322
     34 H           3.4924  -22.0053  179.2830 H       1  UNL1        0.0322
     35 H           3.0563  -19.2946  181.7486 H       1  UNL1        0.1489
     36 H           5.2623  -19.8174  181.9642 H       1  UNL1        0.0515
     37 H           4.9827  -21.2801  180.9875 H       1  UNL1        0.0515
     38 H           4.9209  -19.9383  178.9758 H       1  UNL1        0.0829
     39 H           5.2141  -18.4917  179.9235 H       1  UNL1        0.0829
     40 H           7.2571  -19.3809  180.6102 H       1  UNL1        0.2014
     41 H           6.9563  -20.7901  179.7212 H       1  UNL1        0.2014
     42 H           7.0458  -19.6609  177.7215 H       1  UNL1        0.0825
     43 H           7.2367  -18.1407  178.5987 H       1  UNL1        0.0825
     44 H           7.9097  -19.4739  178.3487 H       1  UNL1        0.0503
     45 H           9.2915  -16.7819  182.1683 H       1  UNL1        0.0661
     46 H          10.5894  -16.6568  181.0053 H       1  UNL1        0.0661
     47 H          10.4796  -18.0571  182.0445 H       1  UNL1        0.0661
     48 H           9.1072  -20.6373  176.9211 H       1  UNL1        0.0584
     49 H          11.5421  -20.8382  177.0046 H       1  UNL1        0.0679
     50 H          13.3789  -19.3286  180.7694 H       1  UNL1        0.0749
     51 H          13.5251  -17.9323  179.7213 H       1  UNL1        0.0749
     52 H          15.1469  -20.4271  177.9995 H       1  UNL1        0.0621
     53 H          17.5574  -20.7350  177.8494 H       1  UNL1        0.0618
     54 H          19.0129  -19.7150  179.5003 H       1  UNL1        0.0624
     55 H          14.3717  -17.6914  181.6223 H       1  UNL1        0.0278
     56 H          15.8185  -16.7121  181.6538 H       1  UNL1        0.0278
     57 H          15.6713  -18.0877  182.7210 H       1  UNL1        0.0278
     58 H          17.5209  -19.1279  183.3230 H       1  UNL1        0.0624
     59 H          19.1113  -18.2335  184.9240 H       1  UNL1        0.0618
     60 H          20.9311  -16.7939  184.1709 H       1  UNL1        0.0618
     61 H          21.1606  -16.2757  181.7996 H       1  UNL1        0.0618
     62 H          19.5786  -17.1787  180.1939 H       1  UNL1        0.0624
@<TRIPOS>UNITY_ATOM_ATTR
8 1
charge 1
@<TRIPOS>BOND
     1    14    15    2
     2    14    10    1
     3    15    16    1
     4     9    10    1
     5     9     8    1
     6    10    11    1
     7    21    20   ar
     8    21    22   ar
     9    20    19   ar
    10    16    17    1
    11    16    13    2
    12    17    18    1
    13    22    23   ar
    14    11    13    2
    15    11     1    1
    16    19    18    1
    17    19    24   ar
    18     8     7    1
    19     7     6    1
    20     4     3    1
    21     1    12    1
    22    23    24   ar
    23    23    26    1
    24    24    25    1
    25     3     2    2
    26     3     5   am
    27     6     5    1
    28    31    26   ar
    29    31    30   ar
    30    26    27   ar
    31    30    29   ar
    32    27    28   ar
    33    29    28   ar
    34     4    32    1
    35     4    33    1
    36     4    34    1
    37     5    35    1
    38     6    36    1
    39     6    37    1
    40     7    38    1
    41     7    39    1
    42     8    40    1
    43     8    41    1
    44     9    42    1
    45     9    43    1
    46    10    44    1
    47    12    45    1
    48    12    46    1
    49    12    47    1
    50    14    48    1
    51    15    49    1
    52    18    50    1
    53    18    51    1
    54    20    52    1
    55    21    53    1
    56    22    54    1
    57    25    55    1
    58    25    56    1
    59    25    57    1
    60    27    58    1
    61    28    59    1
    62    29    60    1
    63    30    61    1
    64    31    62    1
