# created with PyMOL 2.5.5
@<TRIPOS>MOLECULE
../5j89_L.pdb
60 62 1                 
SMALL
USER_CHARGES
@<TRIPOS>ATOM
1	   N	3.360	-20.073	181.228	N.pl3	1	UNL1	-0.310	
2	   N	6.820	-19.781	179.780	N.3	1	UNL1	0.229	
3	   N	11.080	-18.838	179.645	N.2	1	UNL1	-0.337	
4	   C	2.368	-20.884	180.711	C.2	1	UNL1	0.210	
5	   C	2.823	-22.203	180.094	C.3	1	UNL1	0.012	
6	   C	4.796	-20.232	181.095	C.3	1	UNL1	0.052	
7	   C	5.389	-19.545	179.854	C.3	1	UNL1	-0.018	
8	   C	7.446	-19.190	178.595	C.3	1	UNL1	-0.018	
9	   C	8.944	-19.367	178.601	C.2	1	UNL1	0.105	
10	   C	9.751	-18.738	179.581	C.2	1	UNL1	0.257	
11	   C	9.918	-17.330	181.496	C.3	1	UNL1	0.081	
12	   C	9.637	-20.146	177.658	C.2	1	UNL1	-0.060	
13	   C	11.032	-20.269	177.698	C.2	1	UNL1	0.010	
14	   C	11.709	-19.582	178.726	C.2	1	UNL1	0.271	
15	   C	13.729	-18.978	179.821	C.3	1	UNL1	0.117	
16	   C	15.218	-19.202	179.725	C.2	1	UNL1	-0.007	
17	   C	15.767	-19.985	178.696	C.2	1	UNL1	-0.055	
18	   C	17.155	-20.168	178.612	C.2	1	UNL1	-0.061	
19	   C	17.992	-19.579	179.566	C.2	1	UNL1	-0.054	
20	   C	17.459	-18.800	180.619	C.2	1	UNL1	-0.015	
21	   C	16.056	-18.591	180.695	C.2	1	UNL1	-0.036	
22	   C	15.434	-17.706	181.750	C.3	1	UNL1	-0.039	
23	   C	18.405	-18.226	181.618	C.2	1	UNL1	-0.018	
24	   C	18.290	-18.523	182.995	C.2	1	UNL1	-0.054	
25	   C	19.208	-18.006	183.922	C.2	1	UNL1	-0.061	
26	   C	20.259	-17.179	183.489	C.2	1	UNL1	-0.062	
27	   C	20.389	-16.880	182.123	C.2	1	UNL1	-0.061	
28	   C	19.472	-17.401	181.196	C.2	1	UNL1	-0.054	
29	   O	9.108	-17.990	180.521	O.3	1	UNL1	-0.474	
30	   O	1.185	-20.556	180.772	O.2	1	UNL1	-0.276	
31	   O	13.058	-19.686	178.779	O.3	1	UNL1	-0.463	
32	   H	1.971	-22.739	179.731	 H	1	UNL1	0.032	
33	   H	3.324	-22.789	180.835	 H	1	UNL1	0.032	
34	   H	3.492	-22.005	179.283	 H	1	UNL1	0.032	
35	   H	3.056	-19.295	181.749	 H	1	UNL1	0.149	
36	   H	5.262	-19.817	181.964	 H	1	UNL1	0.052	
37	   H	4.983	-21.280	180.988	 H	1	UNL1	0.052	
38	   H	4.921	-19.938	178.976	 H	1	UNL1	0.083	
39	   H	5.214	-18.492	179.923	 H	1	UNL1	0.083	
40	   H	7.046	-19.661	177.721	 H	1	UNL1	0.083	
41	   H	7.237	-18.141	178.599	 H	1	UNL1	0.083	
42	   H	9.292	-16.782	182.168	 H	1	UNL1	0.066	
43	   H	10.589	-16.657	181.005	 H	1	UNL1	0.066	
44	   H	10.480	-18.057	182.044	 H	1	UNL1	0.066	
45	   H	9.107	-20.637	176.921	 H	1	UNL1	0.058	
46	   H	11.542	-20.838	177.005	 H	1	UNL1	0.068	
47	   H	13.379	-19.329	180.769	 H	1	UNL1	0.075	
48	   H	13.525	-17.932	179.721	 H	1	UNL1	0.075	
49	   H	15.147	-20.427	177.999	 H	1	UNL1	0.062	
50	   H	17.557	-20.735	177.849	 H	1	UNL1	0.062	
51	   H	19.013	-19.715	179.500	 H	1	UNL1	0.062	
52	   H	14.372	-17.691	181.622	 H	1	UNL1	0.028	
53	   H	15.818	-16.712	181.654	 H	1	UNL1	0.028	
54	   H	15.671	-18.088	182.721	 H	1	UNL1	0.028	
55	   H	17.521	-19.128	183.323	 H	1	UNL1	0.062	
56	   H	19.111	-18.233	184.924	 H	1	UNL1	0.062	
57	   H	20.931	-16.794	184.171	 H	1	UNL1	0.062	
58	   H	21.161	-16.276	181.800	 H	1	UNL1	0.062	
59	   H	19.579	-17.179	180.194	 H	1	UNL1	0.062	
60	 H01	7.253	-19.386	180.602	 H	1	UNL1	0.000	
@<TRIPOS>BOND
1 1 4 1
2 1 6 1
3 1 35 1
4 2 7 1
5 2 8 1
6 2 60 1
7 3 10 1
8 3 14 2
9 4 5 1
10 4 30 2
11 5 32 1
12 5 33 1
13 5 34 1
14 6 7 1
15 6 36 1
16 6 37 1
17 7 38 1
18 7 39 1
19 8 9 1
20 8 40 1
21 8 41 1
22 9 10 2
23 9 12 1
24 10 29 1
25 11 29 1
26 11 42 1
27 11 43 1
28 11 44 1
29 12 13 2
30 12 45 1
31 13 14 1
32 13 46 1
33 14 31 1
34 15 16 1
35 15 31 1
36 15 47 1
37 15 48 1
38 16 17 ar
39 16 21 ar
40 17 18 ar
41 17 49 1
42 18 19 ar
43 18 50 1
44 19 20 ar
45 19 51 1
46 20 21 ar
47 20 23 1
48 21 22 1
49 22 52 1
50 22 53 1
51 22 54 1
52 23 24 ar
53 23 28 ar
54 24 25 ar
55 24 55 1
56 25 26 ar
57 25 56 1
58 26 27 ar
59 26 57 1
60 27 28 ar
61 27 58 1
62 28 59 1
@<TRIPOS>SUBSTRUCTURE
1	UNL1	1	GROUP	1 ****	UNL
