@<TRIPOS>MOLECULE
LIG
   60    62     1     0     0
SMALL
bcc


@<TRIPOS>ATOM
      1 N            3.3600   -20.0730   181.2280 ns         1 LIG      -0.567900
      2 N1           6.8200   -19.7810   179.7800 n7         1 LIG      -0.816200
      3 N2          11.0800   -18.8380   179.6450 nb         1 LIG      -0.794000
      4 C            2.3680   -20.8840   180.7110 c          1 LIG       0.652100
      5 C1           2.8230   -22.2030   180.0940 c3         1 LIG      -0.170100
      6 C2           4.7960   -20.2320   181.0950 c3         1 LIG       0.086000
      7 C3           5.3890   -19.5450   179.8540 c3         1 LIG       0.129800
      8 C4           7.4460   -19.1900   178.5950 c3         1 LIG       0.232100
      9 C5           8.9440   -19.3670   178.6010 ca         1 LIG      -0.252600
     10 C6           9.7510   -18.7380   179.5810 ca         1 LIG       0.663600
     11 C7           9.9180   -17.3300   181.4960 c3         1 LIG       0.126700
     12 C8           9.6370   -20.1460   177.6580 ca         1 LIG      -0.028000
     13 C9          11.0320   -20.2690   177.6980 ca         1 LIG      -0.295300
     14 C10         11.7090   -19.5820   178.7260 ca         1 LIG       0.667600
     15 C11         13.7290   -18.9780   179.8210 c3         1 LIG       0.185700
     16 C12         15.2180   -19.2020   179.7250 ca         1 LIG      -0.100300
     17 C13         15.7670   -19.9850   178.6960 ca         1 LIG      -0.100000
     18 C14         17.1550   -20.1680   178.6120 ca         1 LIG      -0.137000
     19 C15         17.9920   -19.5790   179.5660 ca         1 LIG      -0.113000
     20 C16         17.4590   -18.8000   180.6190 cp         1 LIG      -0.040000
     21 C17         16.0560   -18.5910   180.6950 ca         1 LIG      -0.055300
     22 C18         15.4340   -17.7060   181.7500 c3         1 LIG      -0.063800
     23 C19         18.4050   -18.2260   181.6180 cp         1 LIG      -0.039000
     24 C20         18.2900   -18.5230   182.9950 ca         1 LIG      -0.118500
     25 C21         19.2080   -18.0060   183.9220 ca         1 LIG      -0.131500
     26 C22         20.2590   -17.1790   183.4890 ca         1 LIG      -0.127000
     27 C23         20.3890   -16.8800   182.1230 ca         1 LIG      -0.131500
     28 C24         19.4720   -17.4010   181.1960 ca         1 LIG      -0.118500
     29 O            9.1080   -17.9900   180.5210 os         1 LIG      -0.457100
     30 O1           1.1850   -20.5560   180.7720 o          1 LIG      -0.609100
     31 O2          13.0580   -19.6860   178.7790 os         1 LIG      -0.446100
     32 H            1.9710   -22.7390   179.7310 hc         1 LIG       0.067367
     33 H1           3.3240   -22.7890   180.8350 hc         1 LIG       0.067367
     34 H2           3.4920   -22.0050   179.2830 hc         1 LIG       0.067367
     35 H3           3.0560   -19.2950   181.7490 hn         1 LIG       0.311500
     36 H4           5.2620   -19.8170   181.9640 h1         1 LIG       0.058200
     37 H5           4.9830   -21.2800   180.9880 h1         1 LIG       0.058200
     38 H6           4.9210   -19.9380   178.9760 h1         1 LIG       0.033200
     39 H7           5.2140   -18.4920   179.9230 h1         1 LIG       0.033200
     40 H8           7.0460   -19.6610   177.7210 h1         1 LIG       0.040200
     41 H9           7.2370   -18.1410   178.5990 h1         1 LIG       0.040200
     42 H10          9.2920   -16.7820   182.1680 h1         1 LIG       0.050700
     43 H11         10.5890   -16.6570   181.0050 h1         1 LIG       0.050700
     44 H12         10.4800   -18.0570   182.0440 h1         1 LIG       0.050700
     45 H13          9.1070   -20.6370   176.9210 ha         1 LIG       0.148000
     46 H14         11.5420   -20.8380   177.0050 ha         1 LIG       0.162000
     47 H15         13.3790   -19.3290   180.7690 h1         1 LIG       0.062200
     48 H16         13.5250   -17.9320   179.7210 h1         1 LIG       0.062200
     49 H17         15.1470   -20.4270   177.9990 ha         1 LIG       0.149000
     50 H18         17.5570   -20.7350   177.8490 ha         1 LIG       0.135000
     51 H19         19.0130   -19.7150   179.5000 ha         1 LIG       0.137000
     52 H20         14.3720   -17.6910   181.6220 hc         1 LIG       0.049367
     53 H21         15.8180   -16.7120   181.6540 hc         1 LIG       0.049367
     54 H22         15.6710   -18.0880   182.7210 hc         1 LIG       0.049367
     55 H23         17.5210   -19.1280   183.3230 ha         1 LIG       0.136500
     56 H24         19.1110   -18.2330   184.9240 ha         1 LIG       0.132000
     57 H25         20.9310   -16.7940   184.1710 ha         1 LIG       0.132000
     58 H26         21.1610   -16.2760   181.8000 ha         1 LIG       0.132000
     59 H27         19.5790   -17.1790   180.1940 ha         1 LIG       0.136500
     60 H01          7.2530   -19.3860   180.6020 hn         1 LIG       0.367800
@<TRIPOS>BOND
     1     1     4 1   
     2     1     6 1   
     3     1    35 1   
     4     2     7 1   
     5     2     8 1   
     6     2    60 1   
     7     3    10 ar  
     8     3    14 ar  
     9     4     5 1   
    10     4    30 2   
    11     5    32 1   
    12     5    33 1   
    13     5    34 1   
    14     6     7 1   
    15     6    36 1   
    16     6    37 1   
    17     7    38 1   
    18     7    39 1   
    19     8     9 1   
    20     8    40 1   
    21     8    41 1   
    22     9    10 ar  
    23     9    12 ar  
    24    10    29 1   
    25    11    29 1   
    26    11    42 1   
    27    11    43 1   
    28    11    44 1   
    29    12    13 ar  
    30    12    45 1   
    31    13    14 ar  
    32    13    46 1   
    33    14    31 1   
    34    15    16 1   
    35    15    31 1   
    36    15    47 1   
    37    15    48 1   
    38    16    17 ar  
    39    16    21 ar  
    40    17    18 ar  
    41    17    49 1   
    42    18    19 ar  
    43    18    50 1   
    44    19    20 ar  
    45    19    51 1   
    46    20    21 ar  
    47    20    23 1   
    48    21    22 1   
    49    22    52 1   
    50    22    53 1   
    51    22    54 1   
    52    23    24 ar  
    53    23    28 ar  
    54    24    25 ar  
    55    24    55 1   
    56    25    26 ar  
    57    25    56 1   
    58    26    27 ar  
    59    26    57 1   
    60    27    28 ar  
    61    27    58 1   
    62    28    59 1   
@<TRIPOS>SUBSTRUCTURE
     1 LIG         1 TEMP              0 ****  ****    0 ROOT
