@<TRIPOS>MOLECULE
LIG
   59    62     1     0     0
SMALL
bcc


@<TRIPOS>ATOM
      1 N           -0.4420    37.6270    20.2520 n3         1 LIG      -0.707600
      2 C            3.1060    37.0740    22.5390 ca         1 LIG      -0.044900
      3 C1           1.8850    37.4350    21.9690 ca         1 LIG      -0.071000
      4 C2           1.8370    38.3340    20.8830 ca         1 LIG      -0.069300
      5 C3           0.5000    38.7400    20.2890 c3         1 LIG       0.189100
      6 C4          -1.8510    37.9760    20.2570 c6         1 LIG       0.041500
      7 C5          -2.3200    38.6680    18.9430 c          1 LIG       0.894600
      8 C6          -2.6860    36.7240    20.6090 c6         1 LIG      -0.054400
      9 C7          -2.3970    35.5790    19.6300 c6         1 LIG      -0.076400
     10 C8          -0.8890    35.2930    19.5930 c6         1 LIG      -0.066400
     11 C9          -0.0930    36.5680    19.3000 c6         1 LIG       0.155800
     12 C10          3.0450    38.8470    20.3870 ca         1 LIG      -0.096000
     13 C11          4.2780    38.4980    20.9630 ca         1 LIG      -0.194000
     14 C12          4.3300    37.6030    22.0510 ca         1 LIG       0.113100
     15 C13          6.7120    37.7160    22.2240 c3         1 LIG       0.174700
     16 C14          7.8300    37.1270    23.0520 ca         1 LIG      -0.092300
     17 C15          7.5520    36.1630    24.0370 ca         1 LIG      -0.092000
     18 C16          8.5990    35.6040    24.7850 ca         1 LIG      -0.140000
     19 C17          9.9160    36.0200    24.5580 ca         1 LIG      -0.119000
     20 C18         10.2130    37.0000    23.5850 cp         1 LIG      -0.052000
     21 C19          9.1610    37.5540    22.8050 ca         1 LIG      -0.057300
     22 C20          9.4230    38.5490    21.6970 c3         1 LIG      -0.062800
     23 C21         11.6340    37.4170    23.4150 cp         1 LIG      -0.027000
     24 C22         12.6320    36.4540    23.1480 ca         1 LIG      -0.119500
     25 C23         13.9790    36.8290    23.0180 ca         1 LIG      -0.134000
     26 C24         14.3530    38.1760    23.1580 ca         1 LIG      -0.134000
     27 C25         13.3720    39.1430    23.4320 ca         1 LIG      -0.134000
     28 C26         12.0260    38.7680    23.5600 ca         1 LIG      -0.119500
     29 O           -1.5670    39.1060    18.1010 o          1 LIG      -0.841800
     30 O1          -3.6680    38.8120    18.7950 o          1 LIG      -0.841800
     31 O2           5.4680    37.1970    22.6650 os         1 LIG      -0.331900
     32 Br           3.1530    35.8440    23.9960 br         1 LIG      -0.105100
     33 H            1.0090    37.0410    22.3450 ha         1 LIG       0.169000
     34 H1           0.0830    39.5260    20.8830 h1         1 LIG       0.069200
     35 H2           0.6700    39.0630    19.2830 h1         1 LIG       0.069200
     36 H3          -2.0090    38.7160    21.0130 h1         1 LIG       0.042700
     37 H4          -2.4400    36.4070    21.6010 hc         1 LIG       0.035700
     38 H5          -3.7240    36.9760    20.5430 hc         1 LIG       0.035700
     39 H6          -2.9170    34.7000    19.9480 hc         1 LIG       0.035700
     40 H7          -2.7270    35.8600    18.6520 hc         1 LIG       0.035700
     41 H8          -0.5840    34.9010    20.5410 hc         1 LIG       0.020700
     42 H9          -0.6960    34.5850    18.8140 hc         1 LIG       0.020700
     43 H10         -0.3150    36.9010    18.3080 h1         1 LIG       0.038200
     44 H11          0.9510    36.3510    19.3940 h1         1 LIG       0.038200
     45 H12          3.0270    39.4940    19.5830 ha         1 LIG       0.147000
     46 H13          5.1510    38.8990    20.5870 ha         1 LIG       0.129000
     47 H14          6.7120    38.7800    22.3320 h1         1 LIG       0.051200
     48 H15          6.8590    37.4600    21.1960 h1         1 LIG       0.051200
     49 H16          6.5790    35.8670    24.2100 ha         1 LIG       0.165000
     50 H17          8.3990    34.8880    25.5010 ha         1 LIG       0.131000
     51 H18         10.6820    35.6040    25.1100 ha         1 LIG       0.129000
     52 H19          8.4950    38.8320    21.2450 hc         1 LIG       0.047700
     53 H20         10.0570    38.1030    20.9600 hc         1 LIG       0.047700
     54 H21          9.9020    39.4160    22.1020 hc         1 LIG       0.047700
     55 H22         12.3680    35.4610    23.0470 ha         1 LIG       0.137500
     56 H23         14.6960    36.1140    22.8190 ha         1 LIG       0.128000
     57 H24         15.3420    38.4530    23.0600 ha         1 LIG       0.127000
     58 H25         13.6420    40.1330    23.5400 ha         1 LIG       0.128000
     59 H26         11.3140    39.4870    23.7620 ha         1 LIG       0.137500
@<TRIPOS>BOND
     1     1     5 1   
     2     1     6 1   
     3     1    11 1   
     4     2     3 ar  
     5     2    14 ar  
     6     2    32 1   
     7     3     4 ar  
     8     3    33 1   
     9     4     5 1   
    10     4    12 ar  
    11     5    34 1   
    12     5    35 1   
    13     6     7 1   
    14     6     8 1   
    15     6    36 1   
    16     7    29 1   
    17     7    30 1   
    18     8     9 1   
    19     8    37 1   
    20     8    38 1   
    21     9    10 1   
    22     9    39 1   
    23     9    40 1   
    24    10    11 1   
    25    10    41 1   
    26    10    42 1   
    27    11    43 1   
    28    11    44 1   
    29    12    13 ar  
    30    12    45 1   
    31    13    14 ar  
    32    13    46 1   
    33    14    31 1   
    34    15    16 1   
    35    15    31 1   
    36    15    47 1   
    37    15    48 1   
    38    16    17 ar  
    39    16    21 ar  
    40    17    18 ar  
    41    17    49 1   
    42    18    19 ar  
    43    18    50 1   
    44    19    20 ar  
    45    19    51 1   
    46    20    21 ar  
    47    20    23 1   
    48    21    22 1   
    49    22    52 1   
    50    22    53 1   
    51    22    54 1   
    52    23    24 ar  
    53    23    28 ar  
    54    24    25 ar  
    55    24    55 1   
    56    25    26 ar  
    57    25    56 1   
    58    26    27 ar  
    59    26    57 1   
    60    27    28 ar  
    61    27    58 1   
    62    28    59 1   
@<TRIPOS>SUBSTRUCTURE
     1 LIG         1 TEMP              0 ****  ****    0 ROOT
