@<TRIPOS>MOLECULE
../5j8o_L.pdb
 62 65 0 0 0
SMALL
GASTEIGER

@<TRIPOS>ATOM
      1 B           3.1530   35.8440   23.9960 B       1  UNL1        0.0000
      2 C           3.1060   37.0740   22.5390 C.ar    1  UNL1        0.0000
      3 C           1.8850   37.4350   21.9690 C.ar    1  UNL1        0.0000
      4 C           1.8370   38.3340   20.8830 C.ar    1  UNL1        0.0000
      5 C           0.5000   38.7400   20.2890 C.3     1  UNL1        0.0000
      6 N          -0.4420   37.6270   20.2520 N.4     1  UNL1        1.0000
      7 C          -1.8510   37.9760   20.2570 C.3     1  UNL1        0.0000
      8 C          -2.3200   38.6680   18.9430 C.2     1  UNL1        0.0000
      9 O          -1.5670   39.1060   18.1010 O.co2   1  UNL1       -0.5000
     10 O          -3.6680   38.8120   18.7950 O.co2   1  UNL1       -0.5000
     11 C          -2.6860   36.7240   20.6090 C.3     1  UNL1        0.0000
     12 C          -2.3970   35.5790   19.6300 C.3     1  UNL1        0.0000
     13 C          -0.8890   35.2930   19.5930 C.3     1  UNL1        0.0000
     14 C          -0.0930   36.5680   19.3000 C.3     1  UNL1        0.0000
     15 C           3.0450   38.8470   20.3870 C.ar    1  UNL1        0.0000
     16 C           4.2780   38.4980   20.9630 C.ar    1  UNL1        0.0000
     17 C           4.3300   37.6030   22.0510 C.ar    1  UNL1        0.0000
     18 O           5.4680   37.1970   22.6650 O.3     1  UNL1        0.0000
     19 C           6.7120   37.7160   22.2240 C.3     1  UNL1        0.0000
     20 C           7.8300   37.1270   23.0520 C.ar    1  UNL1        0.0000
     21 C           7.5520   36.1630   24.0370 C.ar    1  UNL1        0.0000
     22 C           8.5990   35.6040   24.7850 C.ar    1  UNL1        0.0000
     23 C           9.9160   36.0200   24.5580 C.ar    1  UNL1        0.0000
     24 C          10.2130   37.0000   23.5850 C.ar    1  UNL1        0.0000
     25 C           9.1610   37.5540   22.8050 C.ar    1  UNL1        0.0000
     26 C           9.4230   38.5490   21.6970 C.3     1  UNL1        0.0000
     27 C          11.6340   37.4170   23.4150 C.ar    1  UNL1        0.0000
     28 C          12.6320   36.4540   23.1480 C.ar    1  UNL1        0.0000
     29 C          13.9790   36.8290   23.0180 C.ar    1  UNL1        0.0000
     30 C          14.3530   38.1760   23.1580 C.ar    1  UNL1        0.0000
     31 C          13.3720   39.1430   23.4320 C.ar    1  UNL1        0.0000
     32 C          12.0260   38.7680   23.5600 C.ar    1  UNL1        0.0000
     33 H           2.2099   35.4188   24.3927 H       1  UNL1        0.0000
     34 H           4.1234   35.5546   24.4457 H       1  UNL1        0.0000
     35 H           1.0087   37.0407   22.3453 H       1  UNL1        0.0000
     36 H           0.0826   39.5262   20.8828 H       1  UNL1        0.0000
     37 H           0.6696   39.0630   19.2831 H       1  UNL1        0.0000
     38 H          -0.3131   37.2094   21.1736 H       1  UNL1        0.0000
     39 H          -2.0088   38.7162   21.0134 H       1  UNL1        0.0000
     40 H          -2.4404   36.4069   21.6010 H       1  UNL1        0.0000
     41 H          -3.7238   36.9761   20.5428 H       1  UNL1        0.0000
     42 H          -2.9174   34.6999   19.9483 H       1  UNL1        0.0000
     43 H          -2.7270   35.8596   18.6516 H       1  UNL1        0.0000
     44 H          -0.5843   34.9009   20.5408 H       1  UNL1        0.0000
     45 H          -0.6963   34.5855   18.8138 H       1  UNL1        0.0000
     46 H          -0.3153   36.9006   18.3076 H       1  UNL1        0.0000
     47 H           0.9506   36.3512   19.3939 H       1  UNL1        0.0000
     48 H           3.0275   39.4937   19.5829 H       1  UNL1        0.0000
     49 H           5.1513   38.8994   20.5872 H       1  UNL1        0.0000
     50 H           6.7119   38.7805   22.3319 H       1  UNL1        0.0000
     51 H           6.8590   37.4598   21.1956 H       1  UNL1        0.0000
     52 H           6.5786   35.8669   24.2096 H       1  UNL1        0.0000
     53 H           8.3987   34.8880   25.5007 H       1  UNL1        0.0000
     54 H          10.6822   35.6041   25.1103 H       1  UNL1        0.0000
     55 H           8.4953   38.8322   21.2452 H       1  UNL1        0.0000
     56 H          10.0573   38.1030   20.9597 H       1  UNL1        0.0000
     57 H           9.9018   39.4160   22.1020 H       1  UNL1        0.0000
     58 H          12.3678   35.4615   23.0471 H       1  UNL1        0.0000
     59 H          14.6957   36.1136   22.8192 H       1  UNL1        0.0000
     60 H          15.3423   38.4531   23.0601 H       1  UNL1        0.0000
     61 H          13.6422   40.1332   23.5396 H       1  UNL1        0.0000
     62 H          11.3136   39.4867   23.7624 H       1  UNL1        0.0000
@<TRIPOS>UNITY_ATOM_ATTR
6 1
charge 1
10 1
charge -1
@<TRIPOS>BOND
     1     9     8   ar
     2    10     8   ar
     3     8     7    1
     4    14    13    1
     5    14     6    1
     6    13    12    1
     7    12    11    1
     8     6     7    1
     9     6     5    1
    10     7    11    1
    11     5     4    1
    12    15     4   ar
    13    15    16   ar
    14     4     3   ar
    15    16    17   ar
    16    26    25    1
    17     3     2   ar
    18    17     2   ar
    19    17    18    1
    20    19    18    1
    21    19    20    1
    22     2     1    1
    23    25    20   ar
    24    25    24   ar
    25    29    28   ar
    26    29    30   ar
    27    20    21   ar
    28    28    27   ar
    29    30    31   ar
    30    27    32   ar
    31    27    24    1
    32    31    32   ar
    33    24    23   ar
    34    21    22   ar
    35    23    22   ar
    36     1    33    1
    37     1    34    1
    38     3    35    1
    39     5    36    1
    40     5    37    1
    41     6    38    1
    42     7    39    1
    43    11    40    1
    44    11    41    1
    45    12    42    1
    46    12    43    1
    47    13    44    1
    48    13    45    1
    49    14    46    1
    50    14    47    1
    51    15    48    1
    52    16    49    1
    53    19    50    1
    54    19    51    1
    55    21    52    1
    56    22    53    1
    57    23    54    1
    58    26    55    1
    59    26    56    1
    60    26    57    1
    61    28    58    1
    62    29    59    1
    63    30    60    1
    64    31    61    1
    65    32    62    1
