# created with PyMOL 2.5.5
@<TRIPOS>MOLECULE
../5j8o_L.pdb
59 62 1                 
SMALL
USER_CHARGES
@<TRIPOS>ATOM
1	   N	-0.442	37.627	20.252	N.3	1	UNL1	1.000	
2	   C	3.106	37.074	22.539	C.2	1	UNL1	0.000	
3	   C	1.885	37.435	21.969	C.2	1	UNL1	0.000	
4	   C	1.837	38.334	20.883	C.2	1	UNL1	0.000	
5	   C	0.500	38.740	20.289	C.3	1	UNL1	0.000	
6	   C	-1.851	37.976	20.257	C.3	1	UNL1	0.000	
7	   C	-2.320	38.668	18.943	C.2	1	UNL1	0.000	
8	   C	-2.686	36.724	20.609	C.3	1	UNL1	0.000	
9	   C	-2.397	35.579	19.630	C.3	1	UNL1	0.000	
10	   C	-0.889	35.293	19.593	C.3	1	UNL1	0.000	
11	   C	-0.093	36.568	19.300	C.3	1	UNL1	0.000	
12	   C	3.045	38.847	20.387	C.2	1	UNL1	0.000	
13	   C	4.278	38.498	20.963	C.2	1	UNL1	0.000	
14	   C	4.330	37.603	22.051	C.2	1	UNL1	0.000	
15	   C	6.712	37.716	22.224	C.3	1	UNL1	0.000	
16	   C	7.830	37.127	23.052	C.2	1	UNL1	0.000	
17	   C	7.552	36.163	24.037	C.2	1	UNL1	0.000	
18	   C	8.599	35.604	24.785	C.2	1	UNL1	0.000	
19	   C	9.916	36.020	24.558	C.2	1	UNL1	0.000	
20	   C	10.213	37.000	23.585	C.2	1	UNL1	0.000	
21	   C	9.161	37.554	22.805	C.2	1	UNL1	0.000	
22	   C	9.423	38.549	21.697	C.3	1	UNL1	0.000	
23	   C	11.634	37.417	23.415	C.2	1	UNL1	0.000	
24	   C	12.632	36.454	23.148	C.2	1	UNL1	0.000	
25	   C	13.979	36.829	23.018	C.2	1	UNL1	0.000	
26	   C	14.353	38.176	23.158	C.2	1	UNL1	0.000	
27	   C	13.372	39.143	23.432	C.2	1	UNL1	0.000	
28	   C	12.026	38.768	23.560	C.2	1	UNL1	0.000	
29	   O	-1.567	39.106	18.101	O.co2	1	UNL1	-0.500	
30	   O	-3.668	38.812	18.795	O.co2	1	UNL1	-0.500	
31	   O	5.468	37.197	22.665	O.3	1	UNL1	0.000	
32	   Br	3.153	35.844	23.996	 Br	1	UNL1	0.000	
33	   H	1.009	37.041	22.345	 H	1	UNL1	0.000	
34	   H	0.083	39.526	20.883	 H	1	UNL1	0.000	
35	   H	0.670	39.063	19.283	 H	1	UNL1	0.000	
36	   H	-2.009	38.716	21.013	 H	1	UNL1	0.000	
37	   H	-2.440	36.407	21.601	 H	1	UNL1	0.000	
38	   H	-3.724	36.976	20.543	 H	1	UNL1	0.000	
39	   H	-2.917	34.700	19.948	 H	1	UNL1	0.000	
40	   H	-2.727	35.860	18.652	 H	1	UNL1	0.000	
41	   H	-0.584	34.901	20.541	 H	1	UNL1	0.000	
42	   H	-0.696	34.585	18.814	 H	1	UNL1	0.000	
43	   H	-0.315	36.901	18.308	 H	1	UNL1	0.000	
44	   H	0.951	36.351	19.394	 H	1	UNL1	0.000	
45	   H	3.027	39.494	19.583	 H	1	UNL1	0.000	
46	   H	5.151	38.899	20.587	 H	1	UNL1	0.000	
47	   H	6.712	38.780	22.332	 H	1	UNL1	0.000	
48	   H	6.859	37.460	21.196	 H	1	UNL1	0.000	
49	   H	6.579	35.867	24.210	 H	1	UNL1	0.000	
50	   H	8.399	34.888	25.501	 H	1	UNL1	0.000	
51	   H	10.682	35.604	25.110	 H	1	UNL1	0.000	
52	   H	8.495	38.832	21.245	 H	1	UNL1	0.000	
53	   H	10.057	38.103	20.960	 H	1	UNL1	0.000	
54	   H	9.902	39.416	22.102	 H	1	UNL1	0.000	
55	   H	12.368	35.461	23.047	 H	1	UNL1	0.000	
56	   H	14.696	36.114	22.819	 H	1	UNL1	0.000	
57	   H	15.342	38.453	23.060	 H	1	UNL1	0.000	
58	   H	13.642	40.133	23.540	 H	1	UNL1	0.000	
59	   H	11.314	39.487	23.762	 H	1	UNL1	0.000	
@<TRIPOS>BOND
1 1 5 1
2 1 6 1
3 1 11 1
4 2 3 ar
5 2 14 ar
6 2 32 1
7 3 4 ar
8 3 33 1
9 4 5 1
10 4 12 ar
11 5 34 1
12 5 35 1
13 6 7 1
14 6 8 1
15 6 36 1
16 7 29 1
17 7 30 2
18 8 9 1
19 8 37 1
20 8 38 1
21 9 10 1
22 9 39 1
23 9 40 1
24 10 11 1
25 10 41 1
26 10 42 1
27 11 43 1
28 11 44 1
29 12 13 ar
30 12 45 1
31 13 14 ar
32 13 46 1
33 14 31 1
34 15 16 1
35 15 31 1
36 15 47 1
37 15 48 1
38 16 17 ar
39 16 21 ar
40 17 18 ar
41 17 49 1
42 18 19 ar
43 18 50 1
44 19 20 ar
45 19 51 1
46 20 21 ar
47 20 23 1
48 21 22 1
49 22 52 1
50 22 53 1
51 22 54 1
52 23 24 ar
53 23 28 ar
54 24 25 ar
55 24 55 1
56 25 26 ar
57 25 56 1
58 26 27 ar
59 26 57 1
60 27 28 ar
61 27 58 1
62 28 59 1
@<TRIPOS>SUBSTRUCTURE
1	UNL1	1	GROUP	1 ****	UNL
