# created with PyMOL 2.5.5
@<TRIPOS>MOLECULE
5t35
129 135 1               
SMALL
USER_CHARGES
@<TRIPOS>ATOM
1	   N	22.869	-23.553	-13.617	N.pl3	1	7593011	-0.286	
2	  CA	21.622	-24.014	-12.859	C.3	1	7593011	0.105	
3	 CAA	12.190	-24.097	-13.186	C.3	1	7593011	-0.021	
4	 CAB	22.182	-38.240	-14.461	C.3	1	7593011	-0.004	
5	 CAC	22.046	-34.523	-9.872	C.3	1	7593011	-0.033	
6	 CAD	23.474	-32.495	-11.582	C.3	1	7593011	-0.038	
7	 CAE	24.003	-22.033	-16.737	C.3	1	7593011	-0.058	
8	 CAF	26.073	-23.315	-17.225	C.3	1	7593011	-0.058	
9	 CAG	23.828	-24.370	-17.495	C.3	1	7593011	-0.058	
10	 CAN	26.962	-32.739	-13.583	C.2	1	7593011	-0.043	
11	 CAO	26.041	-30.730	-14.495	C.2	1	7593011	-0.043	
12	 CAP	16.310	-24.876	-14.275	C.2	1	7593011	-0.056	
13	 CAQ	17.269	-24.424	-12.127	C.2	1	7593011	-0.056	
14	 CAR	25.730	-33.377	-13.756	C.2	1	7593011	-0.051	
15	 CAS	24.811	-31.362	-14.665	C.2	1	7593011	-0.051	
16	 CAT	15.207	-24.071	-13.946	C.2	1	7593011	-0.053	
17	 CAU	16.173	-23.624	-11.798	C.2	1	7593011	-0.053	
18	 CAV	12.591	-20.893	-11.358	C.2	1	7593011	0.065	
19	 CAW	20.626	-29.543	-19.027	C.3	1	7593011	0.035	
20	 CAX	21.787	-28.558	-19.267	C.3	1	7593011	0.063	
21	 CAY	23.116	-29.028	-17.370	C.3	1	7593011	0.071	
22	 CAZ	24.328	-28.187	-16.931	C.3	1	7593011	0.071	
23	   C	20.526	-24.439	-13.664	C.2	1	7593011	0.234	
24	   O	20.361	-24.010	-14.811	O.2	1	7593011	-0.274	
25	 OAH	27.325	-24.272	-13.771	O.2	1	7593011	-0.273	
26	 OAI	20.537	-31.054	-16.529	O.2	1	7593011	-0.276	
27	 OAK	23.097	-25.492	-14.761	O.2	1	7593011	-0.273	
28	  CB	21.212	-22.814	-12.006	C.3	1	7593011	0.002	
29	 CBA	26.447	-27.518	-17.841	C.3	1	7593011	0.071	
30	 CBB	27.451	-27.797	-16.709	C.3	1	7593011	0.072	
31	 CBC	18.457	-25.866	-13.693	C.3	1	7593011	0.037	
32	 CBD	27.355	-26.578	-14.540	C.3	1	7593011	0.124	
33	 CBE	21.289	-33.103	-17.587	C.3	1	7593011	0.053	
34	 CBT	26.759	-25.180	-14.392	C.2	1	7593011	0.239	
35	 CBU	20.900	-31.597	-17.575	C.2	1	7593011	0.216	
36	 CBW	23.490	-24.353	-14.506	C.2	1	7593011	0.237	
37	 CBX	23.402	-33.295	-14.471	C.2	1	7593011	0.076	
38	 CBY	27.125	-31.408	-13.950	C.2	1	7593011	0.041	
39	 CBZ	12.780	-22.874	-12.467	C.2	1	7593011	0.053	
40	 NBH	22.860	-33.097	-15.675	N.2	1	7593011	-0.271	
41	 NBI	11.974	-21.922	-11.944	N.2	1	7593011	-0.252	
42	 NBJ	21.665	-37.086	-16.659	N.2	1	7593011	-0.134	
43	 NBK	21.511	-35.910	-17.084	N.2	1	7593011	-0.132	
44	 NBL	21.013	-30.956	-18.779	N.pl3	1	7593011	-0.313	
45	 NBM	19.691	-25.324	-13.065	N.pl3	1	7593011	-0.310	
46	 NBN	25.631	-25.053	-15.098	N.pl3	1	7593011	-0.302	
47	 OBO	22.993	-29.112	-18.814	O.3	1	7593011	-0.376	
48	 OBP	25.378	-28.482	-17.832	O.3	1	7593011	-0.375	
49	 OBQ	27.513	-26.597	-15.974	O.3	1	7593011	-0.368	
50	 SBR	14.202	-21.167	-11.474	S.3	1	7593011	-0.075	
51	 SBS	21.584	-35.854	-12.289	S.3	1	7593011	-0.075	
52	  CG	22.483	-21.995	-11.841	C.3	1	7593011	0.073	
53	 CD2	23.254	-22.188	-13.148	C.3	1	7593011	0.042	
54	 OD1	23.265	-22.490	-10.738	O.3	1	7593011	-0.390	
55	 CL1	28.680	-30.578	-13.729	Cl	1	7593011	-0.083	
56	 CCA	17.369	-25.057	-13.373	C.2	1	7593011	-0.030	
57	 CCB	21.940	-37.028	-15.358	C.2	1	7593011	0.135	
58	 CCC	22.187	-34.630	-11.397	C.2	1	7593011	-0.008	
59	 CCD	22.815	-33.743	-12.192	C.2	1	7593011	-0.029	
60	 CCE	24.643	-32.687	-14.291	C.2	1	7593011	0.001	
61	 CCF	15.121	-23.432	-12.695	C.2	1	7593011	-0.009	
62	 CCG	21.682	-35.052	-16.073	C.2	1	7593011	0.163	
63	 CCH	14.088	-22.649	-12.309	C.2	1	7593011	0.042	
64	 CCI	22.826	-34.053	-13.518	C.2	1	7593011	0.035	
65	 CCJ	22.180	-35.204	-13.775	C.2	1	7593011	0.097	
66	 CCL	21.582	-33.640	-16.175	C.3	1	7593011	0.119	
67	 CCN	24.791	-23.861	-15.155	C.3	1	7593011	0.105	
68	 CCQ	24.661	-23.410	-16.637	C.3	1	7593011	-0.011	
69	 NCP	21.970	-35.762	-14.974	N.pl3	1	7593011	-0.275	
70	 H01	12.113	-20.032	-10.890	 H	1	7593011	0.000	
71	   H	21.870	-24.892	-12.300	 H	1	7593011	0.060	
72	   H	11.122	-24.037	-13.174	 H	1	7593011	0.029	
73	   H	12.502	-24.990	-12.686	 H	1	7593011	0.029	
74	   H	12.535	-24.116	-14.199	 H	1	7593011	0.029	
75	   H	22.095	-39.136	-15.040	 H	1	7593011	0.031	
76	   H	21.457	-38.252	-13.674	 H	1	7593011	0.031	
77	   H	23.164	-38.182	-14.040	 H	1	7593011	0.031	
78	   H	21.500	-35.367	-9.504	 H	1	7593011	0.028	
79	   H	21.521	-33.624	-9.625	 H	1	7593011	0.028	
80	   H	23.018	-34.504	-9.424	 H	1	7593011	0.028	
81	   H	23.319	-32.491	-10.523	 H	1	7593011	0.028	
82	   H	23.038	-31.616	-12.010	 H	1	7593011	0.028	
83	   H	24.524	-32.509	-11.789	 H	1	7593011	0.028	
84	   H	24.556	-21.330	-16.150	 H	1	7593011	0.024	
85	   H	22.999	-22.090	-16.373	 H	1	7593011	0.024	
86	   H	23.994	-21.715	-17.759	 H	1	7593011	0.024	
87	   H	26.662	-22.647	-16.632	 H	1	7593011	0.024	
88	   H	26.018	-22.947	-18.228	 H	1	7593011	0.024	
89	   H	26.525	-24.285	-17.225	 H	1	7593011	0.024	
90	   H	22.840	-24.443	-17.092	 H	1	7593011	0.024	
91	   H	24.285	-25.337	-17.494	 H	1	7593011	0.024	
92	   H	23.778	-24.000	-18.498	 H	1	7593011	0.024	
93	   H	27.756	-33.260	-13.180	 H	1	7593011	0.063	
94	   H	26.149	-29.743	-14.778	 H	1	7593011	0.063	
95	   H	16.342	-25.342	-15.195	 H	1	7593011	0.062	
96	   H	18.024	-24.552	-11.435	 H	1	7593011	0.062	
97	   H	25.624	-34.367	-13.485	 H	1	7593011	0.062	
98	   H	24.019	-30.840	-15.072	 H	1	7593011	0.062	
99	   H	14.447	-23.946	-14.633	 H	1	7593011	0.062	
100	   H	16.140	-23.166	-10.874	 H	1	7593011	0.062	
101	   H	20.076	-29.200	-18.176	 H	1	7593011	0.048	
102	   H	20.063	-29.553	-19.937	 H	1	7593011	0.048	
103	   H	21.594	-27.649	-18.737	 H	1	7593011	0.058	
104	   H	21.866	-28.360	-20.316	 H	1	7593011	0.058	
105	   H	23.224	-30.017	-16.976	 H	1	7593011	0.058	
106	   H	22.235	-28.550	-16.995	 H	1	7593011	0.058	
107	   H	24.615	-28.447	-15.933	 H	1	7593011	0.058	
108	   H	24.095	-27.143	-16.942	 H	1	7593011	0.058	
109	   H	20.847	-23.137	-11.054	 H	1	7593011	0.031	
110	   H	20.426	-22.248	-12.460	 H	1	7593011	0.031	
111	   H	26.036	-26.539	-17.711	 H	1	7593011	0.058	
112	   H	26.961	-27.588	-18.777	 H	1	7593011	0.058	
113	   H	28.412	-28.042	-17.110	 H	1	7593011	0.058	
114	   H	27.152	-28.626	-16.102	 H	1	7593011	0.058	
115	   H	18.281	-26.858	-13.331	 H	1	7593011	0.051	
116	   H	18.581	-25.886	-14.756	 H	1	7593011	0.051	
117	   H	28.291	-26.672	-14.031	 H	1	7593011	0.066	
118	   H	26.773	-27.376	-14.128	 H	1	7593011	0.066	
119	   H	20.481	-33.664	-18.008	 H	1	7593011	0.038	
120	   H	22.181	-33.207	-18.169	 H	1	7593011	0.038	
121	   H	21.377	-31.469	-19.536	 H	1	7593011	0.149	
122	   H	19.916	-25.627	-12.156	 H	1	7593011	0.149	
123	   H	25.341	-25.832	-15.626	 H	1	7593011	0.149	
124	   H	22.267	-20.966	-11.640	 H	1	7593011	0.061	
125	   H	24.309	-22.132	-12.976	 H	1	7593011	0.049	
126	   H	23.024	-21.432	-13.869	 H	1	7593011	0.049	
127	   H	23.480	-23.424	-10.887	 H	1	7593011	0.210	
128	   H	20.736	-33.325	-15.600	 H	1	7593011	0.063	
129	   H	25.156	-22.991	-14.650	 H	1	7593011	0.060	
@<TRIPOS>BOND
1 1 2 1
2 1 36 1
3 1 53 1
4 2 23 1
5 2 28 1
6 2 71 1
7 3 39 1
8 3 72 1
9 3 73 1
10 3 74 1
11 4 57 1
12 4 75 1
13 4 76 1
14 4 77 1
15 5 58 1
16 5 78 1
17 5 79 1
18 5 80 1
19 6 59 1
20 6 81 1
21 6 82 1
22 6 83 1
23 7 68 1
24 7 84 1
25 7 85 1
26 7 86 1
27 8 68 1
28 8 87 1
29 8 88 1
30 8 89 1
31 9 68 1
32 9 90 1
33 9 91 1
34 9 92 1
35 10 14 ar
36 10 38 ar
37 10 93 1
38 11 15 ar
39 11 38 ar
40 11 94 1
41 12 16 ar
42 12 56 ar
43 12 95 1
44 13 17 ar
45 13 56 ar
46 13 96 1
47 14 60 ar
48 14 97 1
49 15 60 ar
50 15 98 1
51 16 61 ar
52 16 99 1
53 17 61 ar
54 17 100 1
55 18 41 2
56 18 50 1
57 18 70 1
58 19 20 1
59 19 44 1
60 19 101 1
61 19 102 1
62 20 47 1
63 20 103 1
64 20 104 1
65 21 22 1
66 21 47 1
67 21 105 1
68 21 106 1
69 22 48 1
70 22 107 1
71 22 108 1
72 23 24 2
73 23 45 1
74 25 34 2
75 26 35 2
76 27 36 2
77 28 52 1
78 28 109 1
79 28 110 1
80 29 30 1
81 29 48 1
82 29 111 1
83 29 112 1
84 30 49 1
85 30 113 1
86 30 114 1
87 31 45 1
88 31 56 1
89 31 115 1
90 31 116 1
91 32 34 1
92 32 49 1
93 32 117 1
94 32 118 1
95 33 35 1
96 33 66 1
97 33 119 1
98 33 120 1
99 34 46 1
100 35 44 1
101 36 67 1
102 37 40 2
103 37 60 1
104 37 64 1
105 38 55 1
106 39 41 1
107 39 63 2
108 40 66 1
109 42 43 1
110 42 57 2
111 43 62 2
112 44 121 1
113 45 122 1
114 46 67 1
115 46 123 1
116 50 63 1
117 51 58 1
118 51 65 1
119 52 53 1
120 52 54 1
121 52 124 1
122 53 125 1
123 53 126 1
124 54 127 1
125 57 69 1
126 58 59 2
127 59 64 1
128 61 63 1
129 62 66 1
130 62 69 1
131 64 65 2
132 65 69 1
133 66 128 1
134 67 68 1
135 67 129 1
@<TRIPOS>SUBSTRUCTURE
1	7593011	1	GROUP	1 ****	759301
