@<TRIPOS>MOLECULE
LIG
  129   135     1     0     0
SMALL
bcc


@<TRIPOS>ATOM
      1 N           22.8690   -23.5530   -13.6170 n          1 LIG      -0.458800
      2 CA          21.6220   -24.0140   -12.8590 c5         1 LIG       0.039700
      3 CAA         12.1900   -24.0970   -13.1860 c3         1 LIG      -0.128400
      4 CAB         22.1820   -38.2400   -14.4610 c3         1 LIG      -0.124400
      5 CAC         22.0460   -34.5230    -9.8720 c3         1 LIG      -0.025800
      6 CAD         23.4740   -32.4950   -11.5820 c3         1 LIG      -0.041800
      7 CAE         24.0030   -22.0330   -16.7370 c3         1 LIG      -0.096767
      8 CAF         26.0730   -23.3150   -17.2250 c3         1 LIG      -0.096767
      9 CAG         23.8280   -24.3700   -17.4950 c3         1 LIG      -0.096767
     10 CAN         26.9620   -32.7390   -13.5830 ca         1 LIG      -0.130500
     11 CAO         26.0410   -30.7300   -14.4950 ca         1 LIG      -0.130500
     12 CAP         16.3100   -24.8760   -14.2750 ca         1 LIG      -0.119000
     13 CAQ         17.2690   -24.4240   -12.1270 ca         1 LIG      -0.119000
     14 CAR         25.7300   -33.3770   -13.7560 ca         1 LIG      -0.096000
     15 CAS         24.8110   -31.3620   -14.6650 ca         1 LIG      -0.096000
     16 CAT         15.2070   -24.0710   -13.9460 ca         1 LIG      -0.120500
     17 CAU         16.1730   -23.6240   -11.7980 ca         1 LIG      -0.120500
     18 CAV         12.5910   -20.8930   -11.3580 cc         1 LIG       0.368300
     19 CAW         20.6260   -29.5430   -19.0270 c3         1 LIG       0.054000
     20 CAX         21.7870   -28.5580   -19.2670 c3         1 LIG       0.106400
     21 CAY         23.1160   -29.0280   -17.3700 c3         1 LIG       0.120400
     22 CAZ         24.3280   -28.1870   -16.9310 c3         1 LIG       0.087400
     23 C           20.5260   -24.4390   -13.6640 c          1 LIG       0.641100
     24 O           20.3610   -24.0100   -14.8110 o          1 LIG      -0.620100
     25 OAH         27.3250   -24.2720   -13.7710 o          1 LIG      -0.618100
     26 OAI         20.5370   -31.0540   -16.5290 o          1 LIG      -0.673100
     27 OAK         23.0970   -25.4920   -14.7610 o          1 LIG      -0.648100
     28 CB          21.2120   -22.8140   -12.0060 c5         1 LIG      -0.120400
     29 CBA         26.4470   -27.5180   -17.8410 c3         1 LIG       0.128400
     30 CBB         27.4510   -27.7970   -16.7090 c3         1 LIG       0.085400
     31 CBC         18.4570   -25.8660   -13.6930 c3         1 LIG       0.134300
     32 CBD         27.3550   -26.5780   -14.5400 c3         1 LIG       0.060400
     33 CBE         21.2890   -33.1030   -17.5870 c3         1 LIG      -0.127400
     34 CBT         26.7590   -25.1800   -14.3920 c          1 LIG       0.624100
     35 CBU         20.9000   -31.5970   -17.5750 c          1 LIG       0.669100
     36 CBW         23.4900   -24.3530   -14.5060 c          1 LIG       0.664100
     37 CBX         23.4020   -33.2950   -14.4710 ce         1 LIG       0.565500
     38 CBY         27.1250   -31.4080   -13.9500 ca         1 LIG       0.026400
     39 CBZ         12.7800   -22.8740   -12.4670 cd         1 LIG       0.355600
     40 NBH         22.8600   -33.0970   -15.6750 n2         1 LIG      -0.592900
     41 NBI         11.9740   -21.9220   -11.9440 nd         1 LIG      -0.627000
     42 NBJ         21.6650   -37.0860   -16.6590 nc         1 LIG      -0.337000
     43 NBK         21.5110   -35.9100   -17.0840 nc         1 LIG      -0.332000
     44 NBL         21.0130   -30.9560   -18.7790 ns         1 LIG      -0.543900
     45 NBM         19.6910   -25.3240   -13.0650 ns         1 LIG      -0.561900
     46 NBN         25.6310   -25.0530   -15.0980 ns         1 LIG      -0.547900
     47 OBO         22.9930   -29.1120   -18.8140 os         1 LIG      -0.417600
     48 OBP         25.3780   -28.4820   -17.8320 os         1 LIG      -0.430600
     49 OBQ         27.5130   -26.5970   -15.9740 os         1 LIG      -0.421600
     50 SBR         14.2020   -21.1670   -11.4740 ss         1 LIG      -0.100300
     51 SBS         21.5840   -35.8540   -12.2890 ss         1 LIG       0.059200
     52 CG          22.4830   -21.9950   -11.8410 c5         1 LIG       0.138100
     53 CD2         23.2540   -22.1880   -13.1480 c5         1 LIG       0.047000
     54 OD1         23.2650   -22.4900   -10.7380 oh         1 LIG      -0.587800
     55 Cl1         28.6800   -30.5780   -13.7290 cl         1 LIG      -0.090400
     56 CCA         17.3690   -25.0570   -13.3730 ca         1 LIG      -0.108300
     57 CCB         21.9400   -37.0280   -15.3580 cd         1 LIG       0.379800
     58 CCC         22.1870   -34.6300   -11.3970 cd         1 LIG      -0.117400
     59 CCD         22.8150   -33.7430   -12.1920 cc         1 LIG      -0.057300
     60 CCE         24.6430   -32.6870   -14.2910 ca         1 LIG      -0.136900
     61 CCF         15.1210   -23.4320   -12.6950 ca         1 LIG      -0.009000
     62 CCG         21.6820   -35.0520   -16.0730 cd         1 LIG       0.359800
     63 CCH         14.0880   -22.6490   -12.3090 cc         1 LIG      -0.140400
     64 CCI         22.8260   -34.0530   -13.5180 cc         1 LIG      -0.211900
     65 CCJ         22.1800   -35.2040   -13.7750 cd         1 LIG      -0.015300
     66 CCL         21.5820   -33.6400   -16.1750 c3         1 LIG       0.117200
     67 CCN         24.7910   -23.8610   -15.1550 c3         1 LIG       0.050700
     68 CCQ         24.6610   -23.4100   -16.6370 c3         1 LIG      -0.049000
     69 NCP         21.9700   -35.7620   -14.9740 na         1 LIG      -0.237800
     70 H01         12.1130   -20.0320   -10.8900 h5         1 LIG       0.053100
     71 H           21.8700   -24.8920   -12.3000 h1         1 LIG       0.087700
     72 H1          11.1220   -24.0370   -13.1740 hc         1 LIG       0.054700
     73 H2          12.5020   -24.9900   -12.6860 hc         1 LIG       0.054700
     74 H3          12.5350   -24.1160   -14.1990 hc         1 LIG       0.054700
     75 H4          22.0950   -39.1360   -15.0400 hc         1 LIG       0.066367
     76 H5          21.4570   -38.2520   -13.6740 hc         1 LIG       0.066367
     77 H6          23.1640   -38.1820   -14.0400 hc         1 LIG       0.066367
     78 H7          21.5000   -35.3670    -9.5040 hc         1 LIG       0.054033
     79 H8          21.5210   -33.6240    -9.6250 hc         1 LIG       0.054033
     80 H9          23.0180   -34.5040    -9.4240 hc         1 LIG       0.054033
     81 H10         23.3190   -32.4910   -10.5230 hc         1 LIG       0.054700
     82 H11         23.0380   -31.6160   -12.0100 hc         1 LIG       0.054700
     83 H12         24.5240   -32.5090   -11.7890 hc         1 LIG       0.054700
     84 H13         24.5560   -21.3300   -16.1500 hc         1 LIG       0.044811
     85 H14         22.9990   -22.0900   -16.3730 hc         1 LIG       0.044811
     86 H15         23.9940   -21.7150   -17.7590 hc         1 LIG       0.044811
     87 H16         26.6620   -22.6470   -16.6320 hc         1 LIG       0.044811
     88 H17         26.0180   -22.9470   -18.2280 hc         1 LIG       0.044811
     89 H18         26.5250   -24.2850   -17.2250 hc         1 LIG       0.044811
     90 H19         22.8400   -24.4430   -17.0920 hc         1 LIG       0.044811
     91 H20         24.2850   -25.3370   -17.4940 hc         1 LIG       0.044811
     92 H21         23.7780   -24.0000   -18.4980 hc         1 LIG       0.044811
     93 H22         27.7560   -33.2600   -13.1800 ha         1 LIG       0.160500
     94 H23         26.1490   -29.7430   -14.7780 ha         1 LIG       0.160500
     95 H24         16.3420   -25.3420   -15.1950 ha         1 LIG       0.149500
     96 H25         18.0240   -24.5520   -11.4350 ha         1 LIG       0.149500
     97 H26         25.6240   -34.3670   -13.4850 ha         1 LIG       0.146500
     98 H27         24.0190   -30.8400   -15.0720 ha         1 LIG       0.146500
     99 H28         14.4470   -23.9460   -14.6330 ha         1 LIG       0.137500
    100 H29         16.1400   -23.1660   -10.8740 ha         1 LIG       0.137500
    101 H30         20.0760   -29.2000   -18.1760 h1         1 LIG       0.058200
    102 H31         20.0630   -29.5530   -19.9370 h1         1 LIG       0.058200
    103 H32         21.5940   -27.6490   -18.7370 h1         1 LIG       0.070200
    104 H33         21.8660   -28.3600   -20.3160 h1         1 LIG       0.070200
    105 H34         23.2240   -30.0170   -16.9760 h1         1 LIG       0.062200
    106 H35         22.2350   -28.5500   -16.9950 h1         1 LIG       0.062200
    107 H36         24.6150   -28.4470   -15.9330 h1         1 LIG       0.048200
    108 H37         24.0950   -27.1430   -16.9420 h1         1 LIG       0.048200
    109 H38         20.8470   -23.1370   -11.0540 hc         1 LIG       0.072200
    110 H39         20.4260   -22.2480   -12.4600 hc         1 LIG       0.072200
    111 H40         26.0360   -26.5390   -17.7110 h1         1 LIG       0.065700
    112 H41         26.9610   -27.5880   -18.7770 h1         1 LIG       0.065700
    113 H42         28.4120   -28.0420   -17.1100 h1         1 LIG       0.046700
    114 H43         27.1520   -28.6260   -16.1020 h1         1 LIG       0.046700
    115 H44         18.2810   -26.8580   -13.3310 h1         1 LIG       0.067700
    116 H45         18.5810   -25.8860   -14.7560 h1         1 LIG       0.067700
    117 H46         28.2910   -26.6720   -14.0310 h1         1 LIG       0.085200
    118 H47         26.7730   -27.3760   -14.1280 h1         1 LIG       0.085200
    119 H48         20.4810   -33.6640   -18.0080 hc         1 LIG       0.091700
    120 H49         22.1810   -33.2070   -18.1690 hc         1 LIG       0.091700
    121 H50         21.3770   -31.4690   -19.5360 hn         1 LIG       0.331500
    122 H51         19.9160   -25.6270   -12.1560 hn         1 LIG       0.342500
    123 H52         25.3410   -25.8320   -15.6260 hn         1 LIG       0.332500
    124 H53         22.2670   -20.9660   -11.6400 h1         1 LIG       0.096700
    125 H54         24.3090   -22.1320   -12.9760 h1         1 LIG       0.075200
    126 H55         23.0240   -21.4320   -13.8690 h1         1 LIG       0.075200
    127 H56         23.4800   -23.4240   -10.8870 ho         1 LIG       0.405000
    128 H57         20.7360   -33.3250   -15.6000 h1         1 LIG       0.086700
    129 H58         25.1560   -22.9910   -14.6500 h1         1 LIG       0.096700
@<TRIPOS>BOND
     1     1     2 1   
     2     1    36 1   
     3     1    53 1   
     4     2    23 1   
     5     2    28 1   
     6     2    71 1   
     7     3    39 1   
     8     3    72 1   
     9     3    73 1   
    10     3    74 1   
    11     4    57 1   
    12     4    75 1   
    13     4    76 1   
    14     4    77 1   
    15     5    58 1   
    16     5    78 1   
    17     5    79 1   
    18     5    80 1   
    19     6    59 1   
    20     6    81 1   
    21     6    82 1   
    22     6    83 1   
    23     7    68 1   
    24     7    84 1   
    25     7    85 1   
    26     7    86 1   
    27     8    68 1   
    28     8    87 1   
    29     8    88 1   
    30     8    89 1   
    31     9    68 1   
    32     9    90 1   
    33     9    91 1   
    34     9    92 1   
    35    10    14 ar  
    36    10    38 ar  
    37    10    93 1   
    38    11    15 ar  
    39    11    38 ar  
    40    11    94 1   
    41    12    16 ar  
    42    12    56 ar  
    43    12    95 1   
    44    13    17 ar  
    45    13    56 ar  
    46    13    96 1   
    47    14    60 ar  
    48    14    97 1   
    49    15    60 ar  
    50    15    98 1   
    51    16    61 ar  
    52    16    99 1   
    53    17    61 ar  
    54    17   100 1   
    55    18    41 2   
    56    18    50 1   
    57    18    70 1   
    58    19    20 1   
    59    19    44 1   
    60    19   101 1   
    61    19   102 1   
    62    20    47 1   
    63    20   103 1   
    64    20   104 1   
    65    21    22 1   
    66    21    47 1   
    67    21   105 1   
    68    21   106 1   
    69    22    48 1   
    70    22   107 1   
    71    22   108 1   
    72    23    24 2   
    73    23    45 1   
    74    25    34 2   
    75    26    35 2   
    76    27    36 2   
    77    28    52 1   
    78    28   109 1   
    79    28   110 1   
    80    29    30 1   
    81    29    48 1   
    82    29   111 1   
    83    29   112 1   
    84    30    49 1   
    85    30   113 1   
    86    30   114 1   
    87    31    45 1   
    88    31    56 1   
    89    31   115 1   
    90    31   116 1   
    91    32    34 1   
    92    32    49 1   
    93    32   117 1   
    94    32   118 1   
    95    33    35 1   
    96    33    66 1   
    97    33   119 1   
    98    33   120 1   
    99    34    46 1   
   100    35    44 1   
   101    36    67 1   
   102    37    40 2   
   103    37    60 1   
   104    37    64 1   
   105    38    55 1   
   106    39    41 1   
   107    39    63 2   
   108    40    66 1   
   109    42    43 1   
   110    42    57 2   
   111    43    62 2   
   112    44   121 1   
   113    45   122 1   
   114    46    67 1   
   115    46   123 1   
   116    50    63 1   
   117    51    58 1   
   118    51    65 1   
   119    52    53 1   
   120    52    54 1   
   121    52   124 1   
   122    53   125 1   
   123    53   126 1   
   124    54   127 1   
   125    57    69 1   
   126    58    59 2   
   127    59    64 1   
   128    61    63 1   
   129    62    66 1   
   130    62    69 1   
   131    64    65 2   
   132    65    69 1   
   133    66   128 1   
   134    67    68 1   
   135    67   129 1   
@<TRIPOS>SUBSTRUCTURE
     1 LIG         1 TEMP              0 ****  ****    0 ROOT
