@<TRIPOS>MOLECULE
5t35
 129 135 0 0 0
SMALL
USER_CHARGES

@<TRIPOS>ATOM
      1 N          22.8690  -23.5530  -13.6170 N.am    1  7593011    -0.2858
      2 CA         21.6220  -24.0140  -12.8590 C.3     1  7593011     0.1047
      3 CAA        12.1900  -24.0970  -13.1860 C.3     1  7593011    -0.0212
      4 CAB        22.1820  -38.2400  -14.4610 C.3     1  7593011    -0.0041
      5 CAC        22.0460  -34.5230   -9.8720 C.3     1  7593011    -0.0331
      6 CAD        23.4740  -32.4950  -11.5820 C.3     1  7593011    -0.0383
      7 CAE        24.0030  -22.0330  -16.7370 C.3     1  7593011    -0.0579
      8 CAF        26.0730  -23.3150  -17.2250 C.3     1  7593011    -0.0579
      9 CAG        23.8280  -24.3700  -17.4950 C.3     1  7593011    -0.0579
     10 CAN        26.9620  -32.7390  -13.5830 C.ar    1  7593011    -0.0428
     11 CAO        26.0410  -30.7300  -14.4950 C.ar    1  7593011    -0.0428
     12 CAP        16.3100  -24.8760  -14.2750 C.ar    1  7593011    -0.0565
     13 CAQ        17.2690  -24.4240  -12.1270 C.ar    1  7593011    -0.0565
     14 CAR        25.7300  -33.3770  -13.7560 C.ar    1  7593011    -0.0512
     15 CAS        24.8110  -31.3620  -14.6650 C.ar    1  7593011    -0.0512
     16 CAT        15.2070  -24.0710  -13.9460 C.ar    1  7593011    -0.0532
     17 CAU        16.1730  -23.6240  -11.7980 C.ar    1  7593011    -0.0532
     18 CAV        12.5910  -20.8930  -11.3580 C.ar    1  7593011     0.0655
     19 CAW        20.6260  -29.5430  -19.0270 C.3     1  7593011     0.0350
     20 CAX        21.7870  -28.5580  -19.2670 C.3     1  7593011     0.0632
     21 CAY        23.1160  -29.0280  -17.3700 C.3     1  7593011     0.0711
     22 CAZ        24.3280  -28.1870  -16.9310 C.3     1  7593011     0.0711
     23 C          20.5260  -24.4390  -13.6640 C.2     1  7593011     0.2339
     24 O          20.3610  -24.0100  -14.8110 O.2     1  7593011    -0.2738
     25 OAH        27.3250  -24.2720  -13.7710 O.2     1  7593011    -0.2733
     26 OAI        20.5370  -31.0540  -16.5290 O.2     1  7593011    -0.2757
     27 OAK        23.0970  -25.4920  -14.7610 O.2     1  7593011    -0.2735
     28 CB         21.2120  -22.8140  -12.0060 C.3     1  7593011     0.0018
     29 CBA        26.4470  -27.5180  -17.8410 C.3     1  7593011     0.0711
     30 CBB        27.4510  -27.7970  -16.7090 C.3     1  7593011     0.0716
     31 CBC        18.4570  -25.8660  -13.6930 C.3     1  7593011     0.0369
     32 CBD        27.3550  -26.5780  -14.5400 C.3     1  7593011     0.1237
     33 CBE        21.2890  -33.1030  -17.5870 C.3     1  7593011     0.0534
     34 CBT        26.7590  -25.1800  -14.3920 C.2     1  7593011     0.2394
     35 CBU        20.9000  -31.5970  -17.5750 C.2     1  7593011     0.2156
     36 CBW        23.4900  -24.3530  -14.5060 C.2     1  7593011     0.2371
     37 CBX        23.4020  -33.2950  -14.4710 C.2     1  7593011     0.0763
     38 CBY        27.1250  -31.4080  -13.9500 C.ar    1  7593011     0.0410
     39 CBZ        12.7800  -22.8740  -12.4670 C.ar    1  7593011     0.0531
     40 NBH        22.8600  -33.0970  -15.6750 N.2     1  7593011    -0.2710
     41 NBI        11.9740  -21.9220  -11.9440 N.ar    1  7593011    -0.2520
     42 NBJ        21.6650  -37.0860  -16.6590 N.ar    1  7593011    -0.1342
     43 NBK        21.5110  -35.9100  -17.0840 N.ar    1  7593011    -0.1318
     44 NBL        21.0130  -30.9560  -18.7790 N.am    1  7593011    -0.3130
     45 NBM        19.6910  -25.3240  -13.0650 N.am    1  7593011    -0.3097
     46 NBN        25.6310  -25.0530  -15.0980 N.am    1  7593011    -0.3016
     47 OBO        22.9930  -29.1120  -18.8140 O.3     1  7593011    -0.3760
     48 OBP        25.3780  -28.4820  -17.8320 O.3     1  7593011    -0.3752
     49 OBQ        27.5130  -26.5970  -15.9740 O.3     1  7593011    -0.3683
     50 SBR        14.2020  -21.1670  -11.4740 S.2     1  7593011    -0.0752
     51 SBS        21.5840  -35.8540  -12.2890 S.2     1  7593011    -0.0750
     52 CG         22.4830  -21.9950  -11.8410 C.3     1  7593011     0.0731
     53 CD2        23.2540  -22.1880  -13.1480 C.3     1  7593011     0.0416
     54 OD1        23.2650  -22.4900  -10.7380 O.3     1  7593011    -0.3902
     55 CL1        28.6800  -30.5780  -13.7290 Cl      1  7593011    -0.0835
     56 CCA        17.3690  -25.0570  -13.3730 C.ar    1  7593011    -0.0303
     57 CCB        21.9400  -37.0280  -15.3580 C.ar    1  7593011     0.1353
     58 CCC        22.1870  -34.6300  -11.3970 C.ar    1  7593011    -0.0077
     59 CCD        22.8150  -33.7430  -12.1920 C.ar    1  7593011    -0.0293
     60 CCE        24.6430  -32.6870  -14.2910 C.ar    1  7593011     0.0007
     61 CCF        15.1210  -23.4320  -12.6950 C.ar    1  7593011    -0.0095
     62 CCG        21.6820  -35.0520  -16.0730 C.ar    1  7593011     0.1635
     63 CCH        14.0880  -22.6490  -12.3090 C.ar    1  7593011     0.0417
     64 CCI        22.8260  -34.0530  -13.5180 C.ar    1  7593011     0.0349
     65 CCJ        22.1800  -35.2040  -13.7750 C.ar    1  7593011     0.0969
     66 CCL        21.5820  -33.6400  -16.1750 C.3     1  7593011     0.1195
     67 CCN        24.7910  -23.8610  -15.1550 C.3     1  7593011     0.1045
     68 CCQ        24.6610  -23.4100  -16.6370 C.3     1  7593011    -0.0108
     69 NCP        21.9700  -35.7620  -14.9740 N.ar    1  7593011    -0.2746
     70 H          21.8701  -24.8918  -12.2997 H       1  7593011     0.0597
     71 H          11.1218  -24.0367  -13.1741 H       1  7593011     0.0293
     72 H          12.5025  -24.9898  -12.6859 H       1  7593011     0.0293
     73 H          12.5349  -24.1161  -14.1987 H       1  7593011     0.0293
     74 H          22.0949  -39.1355  -15.0402 H       1  7593011     0.0308
     75 H          21.4567  -38.2521  -13.6744 H       1  7593011     0.0308
     76 H          23.1639  -38.1817  -14.0399 H       1  7593011     0.0308
     77 H          21.5005  -35.3668   -9.5042 H       1  7593011     0.0283
     78 H          21.5215  -33.6238   -9.6245 H       1  7593011     0.0283
     79 H          23.0177  -34.5038   -9.4244 H       1  7593011     0.0283
     80 H          23.3188  -32.4911  -10.5233 H       1  7593011     0.0278
     81 H          23.0380  -31.6164  -12.0096 H       1  7593011     0.0278
     82 H          24.5238  -32.5090  -11.7886 H       1  7593011     0.0278
     83 H          24.5559  -21.3300  -16.1497 H       1  7593011     0.0236
     84 H          22.9986  -22.0903  -16.3726 H       1  7593011     0.0236
     85 H          23.9941  -21.7153  -17.7587 H       1  7593011     0.0236
     86 H          26.6620  -22.6467  -16.6323 H       1  7593011     0.0236
     87 H          26.0176  -22.9473  -18.2283 H       1  7593011     0.0236
     88 H          26.5254  -24.2847  -17.2250 H       1  7593011     0.0236
     89 H          22.8396  -24.4426  -17.0916 H       1  7593011     0.0236
     90 H          24.2855  -25.3373  -17.4944 H       1  7593011     0.0236
     91 H          23.7777  -23.9999  -18.4977 H       1  7593011     0.0236
     92 H          27.7564  -33.2600  -13.1798 H       1  7593011     0.0632
     93 H          26.1488  -29.7435  -14.7781 H       1  7593011     0.0632
     94 H          16.3419  -25.3419  -15.1953 H       1  7593011     0.0621
     95 H          18.0241  -24.5522  -11.4353 H       1  7593011     0.0621
     96 H          25.6243  -34.3673  -13.4853 H       1  7593011     0.0625
     97 H          24.0191  -30.8404  -15.0722 H       1  7593011     0.0625
     98 H          14.4471  -23.9460  -14.6330 H       1  7593011     0.0624
     99 H          16.1401  -23.1659  -10.8739 H       1  7593011     0.0624
    100 H          12.1381  -20.0782  -10.9152 H       1  7593011     0.0907
    101 H          20.0758  -29.1998  -18.1759 H       1  7593011     0.0484
    102 H          20.0627  -29.5530  -19.9367 H       1  7593011     0.0484
    103 H          21.5945  -27.6487  -18.7369 H       1  7593011     0.0575
    104 H          21.8657  -28.3596  -20.3155 H       1  7593011     0.0575
    105 H          23.2237  -30.0171  -16.9764 H       1  7593011     0.0583
    106 H          22.2350  -28.5500  -16.9953 H       1  7593011     0.0583
    107 H          24.6147  -28.4468  -15.9334 H       1  7593011     0.0583
    108 H          24.0949  -27.1428  -16.9417 H       1  7593011     0.0583
    109 H          20.8466  -23.1370  -11.0536 H       1  7593011     0.0313
    110 H          20.4256  -22.2482  -12.4603 H       1  7593011     0.0313
    111 H          26.0361  -26.5387  -17.7107 H       1  7593011     0.0583
    112 H          26.9608  -27.5876  -18.7770 H       1  7593011     0.0583
    113 H          28.4120  -28.0424  -17.1104 H       1  7593011     0.0583
    114 H          27.1524  -28.6258  -16.1017 H       1  7593011     0.0583
    115 H          18.2807  -26.8575  -13.3314 H       1  7593011     0.0512
    116 H          18.5814  -25.8860  -14.7556 H       1  7593011     0.0512
    117 H          28.2913  -26.6724  -14.0307 H       1  7593011     0.0656
    118 H          26.7730  -27.3756  -14.1277 H       1  7593011     0.0656
    119 H          20.4810  -33.6641  -18.0080 H       1  7593011     0.0384
    120 H          22.1808  -33.2068  -18.1691 H       1  7593011     0.0384
    121 H          21.3774  -31.4688  -19.5363 H       1  7593011     0.1488
    122 H          19.9164  -25.6271  -12.1558 H       1  7593011     0.1491
    123 H          25.3415  -25.8320  -15.6258 H       1  7593011     0.1495
    124 H          22.2673  -20.9664  -11.6402 H       1  7593011     0.0610
    125 H          24.3086  -22.1316  -12.9759 H       1  7593011     0.0490
    126 H          23.0238  -21.4320  -13.8694 H       1  7593011     0.0490
    127 H          23.4796  -23.4241  -10.8873 H       1  7593011     0.2098
    128 H          20.7363  -33.3248  -15.6003 H       1  7593011     0.0631
    129 H          25.1562  -22.9910  -14.6504 H       1  7593011     0.0600
@<TRIPOS>BOND
     1     1    36   am
     2     1     2    1
     3     2    28    1
     4     3    39    1
     5    10    38   ar
     6    11    15   ar
     7    12    56   ar
     8    13    56   ar
     9    10    14   ar
    10    12    16   ar
    11    13    17   ar
    12    18    50   ar
    13    19    44    1
    14    19    20    1
    15    21    47    1
    16    21    22    1
    17     2    23    1
    18    23    24    2
    19    28    52    1
    20    29    48    1
    21    29    30    1
    22    31    45    1
    23    32    49    1
    24    33    66    1
    25    25    34    2
    26    32    34    1
    27    26    35    2
    28    33    35    1
    29    27    36    2
    30    36    67    1
    31    37    60    1
    32    11    38   ar
    33    38    55    1
    34    39    41   ar
    35    39    63   ar
    36    37    40    2
    37    18    41   ar
    38    42    57   ar
    39    42    43   ar
    40    35    44   am
    41    23    45   am
    42    34    46   am
    43    20    47    1
    44    22    48    1
    45    30    49    1
    46    50    63   ar
    47    51    58   ar
    48    52    53    1
    49    52    54    1
    50     1    53    1
    51    31    56    1
    52     4    57    1
    53    57    69   ar
    54     5    58    1
    55    58    59   ar
    56     6    59    1
    57    59    64   ar
    58    14    60   ar
    59    15    60   ar
    60    16    61   ar
    61    17    61   ar
    62    43    62   ar
    63    62    69   ar
    64    61    63    1
    65    37    64    1
    66    51    65   ar
    67    64    65   ar
    68    40    66    1
    69    62    66    1
    70    46    67    1
    71    67    68    1
    72     7    68    1
    73     8    68    1
    74     9    68    1
    75    65    69    1
    76     2    70    1
    77     3    71    1
    78     3    72    1
    79     3    73    1
    80     4    74    1
    81     4    75    1
    82     4    76    1
    83     5    77    1
    84     5    78    1
    85     5    79    1
    86     6    80    1
    87     6    81    1
    88     6    82    1
    89     7    83    1
    90     7    84    1
    91     7    85    1
    92     8    86    1
    93     8    87    1
    94     8    88    1
    95     9    89    1
    96     9    90    1
    97     9    91    1
    98    10    92    1
    99    11    93    1
   100    12    94    1
   101    13    95    1
   102    14    96    1
   103    15    97    1
   104    16    98    1
   105    17    99    1
   106    18   100    1
   107    19   101    1
   108    19   102    1
   109    20   103    1
   110    20   104    1
   111    21   105    1
   112    21   106    1
   113    22   107    1
   114    22   108    1
   115    28   109    1
   116    28   110    1
   117    29   111    1
   118    29   112    1
   119    30   113    1
   120    30   114    1
   121    31   115    1
   122    31   116    1
   123    32   117    1
   124    32   118    1
   125    33   119    1
   126    33   120    1
   127    44   121    1
   128    45   122    1
   129    46   123    1
   130    52   124    1
   131    53   125    1
   132    53   126    1
   133    54   127    1
   134    66   128    1
   135    67   129    1
