# created with PyMOL 2.5.5
@<TRIPOS>MOLECULE
5t35
69 75 1                 
SMALL
USER_CHARGES
@<TRIPOS>ATOM
1	   N	22.869	-23.553	-13.617	N.pl3	1	759301	0.000	
2	  CA	21.622	-24.014	-12.859	C.3	1	759301	0.000	
3	 CAA	12.190	-24.097	-13.186	C.3	1	759301	0.000	
4	 CAB	22.182	-38.240	-14.461	C.3	1	759301	0.000	
5	 CAC	22.046	-34.523	-9.872	C.3	1	759301	0.000	
6	 CAD	23.474	-32.495	-11.582	C.3	1	759301	0.000	
7	 CAE	24.003	-22.033	-16.737	C.3	1	759301	0.000	
8	 CAF	26.073	-23.315	-17.225	C.3	1	759301	0.000	
9	 CAG	23.828	-24.370	-17.495	C.3	1	759301	0.000	
10	 CAN	26.962	-32.739	-13.583	C.2	1	759301	0.000	
11	 CAO	26.041	-30.730	-14.495	C.2	1	759301	0.000	
12	 CAP	16.310	-24.876	-14.275	C.2	1	759301	0.000	
13	 CAQ	17.269	-24.424	-12.127	C.2	1	759301	0.000	
14	 CAR	25.730	-33.377	-13.756	C.2	1	759301	0.000	
15	 CAS	24.811	-31.362	-14.665	C.2	1	759301	0.000	
16	 CAT	15.207	-24.071	-13.946	C.2	1	759301	0.000	
17	 CAU	16.173	-23.624	-11.798	C.2	1	759301	0.000	
18	 CAV	12.591	-20.893	-11.358	C.2	1	759301	0.000	
19	 CAW	20.626	-29.543	-19.027	C.3	1	759301	0.000	
20	 CAX	21.787	-28.558	-19.267	C.3	1	759301	0.000	
21	 CAY	23.116	-29.028	-17.370	C.3	1	759301	0.000	
22	 CAZ	24.328	-28.187	-16.931	C.3	1	759301	0.000	
23	   C	20.526	-24.439	-13.664	C.2	1	759301	0.000	
24	   O	20.361	-24.010	-14.811	O.2	1	759301	0.000	
25	 OAH	27.325	-24.272	-13.771	O.2	1	759301	0.000	
26	 OAI	20.537	-31.054	-16.529	O.2	1	759301	0.000	
27	 OAK	23.097	-25.492	-14.761	O.2	1	759301	0.000	
28	  CB	21.212	-22.814	-12.006	C.3	1	759301	0.000	
29	 CBA	26.447	-27.518	-17.841	C.3	1	759301	0.000	
30	 CBB	27.451	-27.797	-16.709	C.3	1	759301	0.000	
31	 CBC	18.457	-25.866	-13.693	C.3	1	759301	0.000	
32	 CBD	27.355	-26.578	-14.540	C.3	1	759301	0.000	
33	 CBE	21.289	-33.103	-17.587	C.3	1	759301	0.000	
34	 CBT	26.759	-25.180	-14.392	C.2	1	759301	0.000	
35	 CBU	20.900	-31.597	-17.575	C.2	1	759301	0.000	
36	 CBW	23.490	-24.353	-14.506	C.2	1	759301	0.000	
37	 CBX	23.402	-33.295	-14.471	C.2	1	759301	0.000	
38	 CBY	27.125	-31.408	-13.950	C.2	1	759301	0.000	
39	 CBZ	12.780	-22.874	-12.467	C.2	1	759301	0.000	
40	 NBH	22.860	-33.097	-15.675	N.2	1	759301	0.000	
41	 NBI	11.974	-21.922	-11.944	N.2	1	759301	0.000	
42	 NBJ	21.665	-37.086	-16.659	N.2	1	759301	0.000	
43	 NBK	21.511	-35.910	-17.084	N.2	1	759301	0.000	
44	 NBL	21.013	-30.956	-18.779	N.pl3	1	759301	0.000	
45	 NBM	19.691	-25.324	-13.065	N.pl3	1	759301	0.000	
46	 NBN	25.631	-25.053	-15.098	N.pl3	1	759301	0.000	
47	 OBO	22.993	-29.112	-18.814	O.3	1	759301	0.000	
48	 OBP	25.378	-28.482	-17.832	O.3	1	759301	0.000	
49	 OBQ	27.513	-26.597	-15.974	O.3	1	759301	0.000	
50	 SBR	14.202	-21.167	-11.474	S.2	1	759301	0.000	
51	 SBS	21.584	-35.854	-12.289	S.2	1	759301	0.000	
52	  CG	22.483	-21.995	-11.841	C.3	1	759301	0.000	
53	 CD2	23.254	-22.188	-13.148	C.3	1	759301	0.000	
54	 OD1	23.265	-22.490	-10.738	O.3	1	759301	0.000	
55	 CL1	28.680	-30.578	-13.729	Cl	1	759301	0.000	
56	 CCA	17.369	-25.057	-13.373	C.2	1	759301	0.000	
57	 CCB	21.940	-37.028	-15.358	C.2	1	759301	0.000	
58	 CCC	22.187	-34.630	-11.397	C.2	1	759301	0.000	
59	 CCD	22.815	-33.743	-12.192	C.2	1	759301	0.000	
60	 CCE	24.643	-32.687	-14.291	C.2	1	759301	0.000	
61	 CCF	15.121	-23.432	-12.695	C.2	1	759301	0.000	
62	 CCG	21.682	-35.052	-16.073	C.2	1	759301	0.000	
63	 CCH	14.088	-22.649	-12.309	C.2	1	759301	0.000	
64	 CCI	22.826	-34.053	-13.518	C.2	1	759301	0.000	
65	 CCJ	22.180	-35.204	-13.775	C.2	1	759301	0.000	
66	 CCL	21.582	-33.640	-16.175	C.3	1	759301	0.000	
67	 CCN	24.791	-23.861	-15.155	C.3	1	759301	0.000	
68	 CCQ	24.661	-23.410	-16.637	C.3	1	759301	0.000	
69	 NCP	21.970	-35.762	-14.974	N.2	1	759301	0.000	
@<TRIPOS>BOND
1 1 36 1
2 1 2 1
3 2 28 1
4 3 39 1
5 10 38 ar
6 11 15 ar
7 12 56 ar
8 13 56 ar
9 10 14 ar
10 12 16 ar
11 13 17 ar
12 18 50 ar
13 19 44 1
14 19 20 1
15 21 47 1
16 21 22 1
17 2 23 1
18 23 24 2
19 28 52 1
20 29 48 1
21 29 30 1
22 31 45 1
23 32 49 1
24 33 66 1
25 25 34 2
26 32 34 1
27 26 35 2
28 33 35 1
29 27 36 2
30 36 67 1
31 37 60 1
32 11 38 ar
33 38 55 1
34 39 41 ar
35 39 63 ar
36 37 40 2
37 18 41 ar
38 42 57 ar
39 42 43 ar
40 35 44 1
41 23 45 1
42 34 46 1
43 20 47 1
44 22 48 1
45 30 49 1
46 50 63 ar
47 51 58 ar
48 52 53 1
49 52 54 1
50 1 53 1
51 31 56 1
52 4 57 1
53 57 69 ar
54 5 58 1
55 58 59 ar
56 6 59 1
57 59 64 ar
58 14 60 ar
59 15 60 ar
60 16 61 ar
61 17 61 ar
62 43 62 ar
63 62 69 ar
64 61 63 1
65 37 64 1
66 51 65 ar
67 64 65 ar
68 40 66 1
69 62 66 1
70 46 67 1
71 67 68 1
72 7 68 1
73 8 68 1
74 9 68 1
75 65 69 1
@<TRIPOS>SUBSTRUCTURE
1	759301	1	GROUP	1 D	759
