# created with PyMOL 2.5.5
@<TRIPOS>MOLECULE
6bn7
107 113 1               
SMALL
USER_CHARGES
@<TRIPOS>ATOM
1	   N	73.831	33.753	58.131	N.2	1	RN35021	-0.134	
2	   C	72.693	35.697	59.186	C.3	1	RN35021	-0.004	
3	   O	71.989	32.209	52.278	O.3	1	RN35021	-0.468	
4	  CL	73.317	39.576	50.114	Cl	1	RN35021	-0.083	
5	  C1	72.915	34.686	58.122	C.2	1	RN35021	0.135	
6	  N1	73.707	33.017	56.958	N.2	1	RN35021	-0.132	
7	  O1	74.065	31.435	52.534	O.co2	1	RN35021	-0.251	
8	  C2	72.712	33.529	56.268	C.2	1	RN35021	0.163	
9	  N2	72.471	34.182	53.954	N.2	1	RN35021	-0.271	
10	  O2	66.232	47.334	52.648	O.3	1	RN35021	-0.482	
11	  C3	72.127	33.137	54.929	C.3	1	RN35021	0.121	
12	  N3	66.877	37.394	55.371	N.pl3	1	RN35021	-0.311	
13	  O3	66.642	50.164	48.145	O.2	1	RN35021	-0.273	
14	  C4	72.684	31.784	54.470	C.3	1	RN35021	0.074	
15	  N4	64.835	45.778	55.187	N.pl3	1	RN35021	-0.312	
16	  O4	63.131	52.560	46.592	O.2	1	RN35021	-0.275	
17	  C5	73.015	31.779	53.004	C.2	1	RN35021	0.309	
18	  N5	65.194	47.855	48.479	N.pl3	1	RN35021	-0.222	
19	  O5	65.376	46.079	46.992	O.2	1	RN35021	-0.269	
20	  C6	72.070	31.964	50.854	C.3	1	RN35021	0.082	
21	  N6	64.856	51.326	47.362	N.pl3	1	RN35021	-0.255	
22	  O6	65.249	49.132	50.417	O.2	1	RN35021	-0.269	
23	  C7	71.917	35.330	54.094	C.2	1	RN35021	0.076	
24	  N7	72.174	34.593	56.963	N.pl3	1	RN35021	-0.275	
25	  O7	64.914	48.029	55.270	O.2	1	RN35021	-0.272	
26	  C8	72.263	36.377	53.112	C.2	1	RN35021	0.001	
27	  O8	67.604	37.919	57.438	O.2	1	RN35021	-0.270	
28	  C9	72.235	37.721	53.469	C.2	1	RN35021	-0.051	
29	 C10	72.558	38.705	52.552	C.2	1	RN35021	-0.043	
30	 C11	72.910	38.340	51.272	C.2	1	RN35021	0.041	
31	 C12	72.947	37.018	50.889	C.2	1	RN35021	-0.043	
32	 C13	72.623	36.039	51.811	C.2	1	RN35021	-0.051	
33	 C14	70.969	35.686	55.155	C.2	1	RN35021	0.035	
34	 C15	71.106	35.340	56.480	C.2	1	RN35021	0.097	
35	 C16	69.062	36.655	56.081	C.2	1	RN35021	0.079	
36	 C17	67.784	37.375	56.350	C.2	1	RN35021	0.251	
37	 C18	65.446	37.440	55.637	C.3	1	RN35021	0.012	
38	 C19	65.060	38.644	56.474	C.3	1	RN35021	-0.037	
39	 C20	64.466	39.779	55.656	C.3	1	RN35021	-0.052	
40	 C21	64.883	41.162	56.129	C.3	1	RN35021	-0.053	
41	 C22	63.986	41.739	57.212	C.3	1	RN35021	-0.053	
42	 C23	63.470	43.136	56.905	C.3	1	RN35021	-0.052	
43	 C24	64.512	44.229	57.078	C.3	1	RN35021	-0.037	
44	 C25	64.116	45.542	56.431	C.3	1	RN35021	0.012	
45	 C26	65.364	46.958	54.870	C.2	1	RN35021	0.251	
46	 C27	66.578	46.943	53.973	C.3	1	RN35021	0.165	
47	 C28	66.292	46.377	51.671	C.2	1	RN35021	0.134	
48	 C29	66.708	45.074	51.899	C.2	1	RN35021	-0.019	
49	 C30	66.739	44.167	50.849	C.2	1	RN35021	-0.058	
50	 C31	66.358	44.551	49.573	C.2	1	RN35021	-0.049	
51	 C32	65.943	45.863	49.358	C.2	1	RN35021	0.053	
52	 C33	65.488	46.534	48.115	C.2	1	RN35021	0.255	
53	 C34	64.709	48.874	47.552	C.3	1	RN35021	0.111	
54	 C35	63.212	49.095	47.723	C.3	1	RN35021	-0.017	
55	 C36	62.760	50.202	46.778	C.3	1	RN35021	0.026	
56	 C37	63.573	51.455	46.895	C.2	1	RN35021	0.219	
57	 C38	65.491	50.162	47.715	C.2	1	RN35021	0.240	
58	 C39	65.904	46.780	50.385	C.2	1	RN35021	0.091	
59	 C40	65.424	48.074	49.842	C.2	1	RN35021	0.258	
60	 C41	69.776	36.453	54.921	C.2	1	RN35021	-0.020	
61	 C42	69.354	36.973	53.578	C.3	1	RN35021	-0.038	
62	   S	69.812	35.928	57.465	S.3	1	RN35021	-0.065	
63	   H	73.403	35.548	59.973	 H	1	RN35021	0.031	
64	   H	71.702	35.593	59.575	 H	1	RN35021	0.031	
65	   H	72.815	36.678	58.777	 H	1	RN35021	0.031	
66	   H	71.064	33.042	55.013	 H	1	RN35021	0.063	
67	   H	67.186	37.376	54.437	 H	1	RN35021	0.149	
68	   H	71.953	31.027	54.662	 H	1	RN35021	0.040	
69	   H	73.587	31.597	55.013	 H	1	RN35021	0.040	
70	   H	64.934	45.032	54.552	 H	1	RN35021	0.149	
71	   H	71.195	32.351	50.375	 H	1	RN35021	0.066	
72	   H	72.138	30.911	50.676	 H	1	RN35021	0.066	
73	   H	72.937	32.449	50.457	 H	1	RN35021	0.066	
74	   H	65.377	52.157	47.454	 H	1	RN35021	0.157	
75	   H	71.970	37.987	54.430	 H	1	RN35021	0.062	
76	   H	72.535	39.700	52.824	 H	1	RN35021	0.063	
77	   H	73.213	36.761	49.926	 H	1	RN35021	0.063	
78	   H	72.649	35.046	51.531	 H	1	RN35021	0.062	
79	   H	65.164	36.551	56.161	 H	1	RN35021	0.046	
80	   H	64.938	37.515	54.698	 H	1	RN35021	0.046	
81	   H	65.935	39.006	56.972	 H	1	RN35021	0.028	
82	   H	64.308	38.323	57.164	 H	1	RN35021	0.028	
83	   H	63.400	39.711	55.711	 H	1	RN35021	0.027	
84	   H	64.834	39.668	54.657	 H	1	RN35021	0.027	
85	   H	64.866	41.825	55.289	 H	1	RN35021	0.026	
86	   H	65.860	41.063	56.555	 H	1	RN35021	0.026	
87	   H	64.543	41.778	58.125	 H	1	RN35021	0.026	
88	   H	63.131	41.100	57.280	 H	1	RN35021	0.026	
89	   H	62.651	43.344	57.561	 H	1	RN35021	0.027	
90	   H	63.182	43.141	55.874	 H	1	RN35021	0.027	
91	   H	65.429	43.897	56.639	 H	1	RN35021	0.028	
92	   H	64.611	44.410	58.128	 H	1	RN35021	0.028	
93	   H	64.331	46.340	57.111	 H	1	RN35021	0.046	
94	   H	63.071	45.496	56.204	 H	1	RN35021	0.046	
95	   H	66.986	45.954	53.952	 H	1	RN35021	0.079	
96	   H	67.298	47.635	54.358	 H	1	RN35021	0.079	
97	   H	66.993	44.780	52.846	 H	1	RN35021	0.065	
98	   H	67.049	43.197	51.020	 H	1	RN35021	0.062	
99	   H	66.382	43.875	48.794	 H	1	RN35021	0.062	
100	   H	64.867	48.526	46.552	 H	1	RN35021	0.060	
101	   H	63.005	49.380	48.733	 H	1	RN35021	0.029	
102	   H	62.686	48.191	47.497	 H	1	RN35021	0.029	
103	   H	61.740	50.438	46.996	 H	1	RN35021	0.036	
104	   H	62.887	49.836	45.780	 H	1	RN35021	0.036	
105	   H	70.074	36.684	52.841	 H	1	RN35021	0.028	
106	   H	69.289	38.040	53.613	 H	1	RN35021	0.028	
107	   H	68.398	36.565	53.322	 H	1	RN35021	0.028	
@<TRIPOS>BOND
1 1 5 2
2 1 6 1
3 2 5 1
4 2 63 1
5 2 64 1
6 2 65 1
7 3 17 1
8 3 20 1
9 4 30 1
10 5 24 1
11 6 8 2
12 7 17 2
13 8 11 1
14 8 24 1
15 9 11 1
16 9 23 2
17 10 46 1
18 10 47 1
19 11 14 1
20 11 66 1
21 12 36 1
22 12 37 1
23 12 67 1
24 13 57 2
25 14 17 1
26 14 68 1
27 14 69 1
28 15 44 1
29 15 45 1
30 15 70 1
31 16 56 2
32 18 52 1
33 18 53 1
34 18 59 1
35 19 52 2
36 20 71 1
37 20 72 1
38 20 73 1
39 21 56 1
40 21 57 1
41 21 74 1
42 22 59 2
43 23 26 1
44 23 33 1
45 24 34 1
46 25 45 2
47 26 28 ar
48 26 32 ar
49 27 36 2
50 28 29 ar
51 28 75 1
52 29 30 ar
53 29 76 1
54 30 31 ar
55 31 32 ar
56 31 77 1
57 32 78 1
58 33 34 2
59 33 60 1
60 34 62 1
61 35 36 1
62 35 60 2
63 35 62 1
64 37 38 1
65 37 79 1
66 37 80 1
67 38 39 1
68 38 81 1
69 38 82 1
70 39 40 1
71 39 83 1
72 39 84 1
73 40 41 1
74 40 85 1
75 40 86 1
76 41 42 1
77 41 87 1
78 41 88 1
79 42 43 1
80 42 89 1
81 42 90 1
82 43 44 1
83 43 91 1
84 43 92 1
85 44 93 1
86 44 94 1
87 45 46 1
88 46 95 1
89 46 96 1
90 47 48 ar
91 47 58 ar
92 48 49 ar
93 48 97 1
94 49 50 ar
95 49 98 1
96 50 51 ar
97 50 99 1
98 51 52 1
99 51 58 ar
100 53 54 1
101 53 57 1
102 53 100 1
103 54 55 1
104 54 101 1
105 54 102 1
106 55 56 1
107 55 103 1
108 55 104 1
109 58 59 1
110 60 61 1
111 61 105 1
112 61 106 1
113 61 107 1
@<TRIPOS>SUBSTRUCTURE
1	RN35021	1	GROUP	1 ****	RN3502
