@<TRIPOS>MOLECULE
LIG
  107   113     1     0     0
SMALL
bcc


@<TRIPOS>ATOM
      1 N           73.8310    33.7530    58.1310 nc         1 LIG      -0.333000
      2 C           72.6930    35.6970    59.1860 c3         1 LIG      -0.126400
      3 O           71.9890    32.2090    52.2780 os         1 LIG      -0.452900
      4 Cl          73.3170    39.5760    50.1140 cl         1 LIG      -0.095400
      5 C1          72.9150    34.6860    58.1220 cd         1 LIG       0.383800
      6 N1          73.7070    33.0170    56.9580 nc         1 LIG      -0.328000
      7 O1          74.0650    31.4350    52.5340 o          1 LIG      -0.529000
      8 C2          72.7120    33.5290    56.2680 cd         1 LIG       0.361800
      9 N2          72.4710    34.1820    53.9540 n2         1 LIG      -0.573900
     10 O2          66.2320    47.3340    52.6480 os         1 LIG      -0.303900
     11 C3          72.1270    33.1370    54.9290 c3         1 LIG       0.116200
     12 N3          66.8770    37.3940    55.3710 ns         1 LIG      -0.542900
     13 O3          66.6420    50.1640    48.1450 o          1 LIG      -0.594500
     14 C4          72.6840    31.7840    54.4700 c3         1 LIG      -0.104400
     15 N4          64.8350    45.7780    55.1870 ns         1 LIG      -0.546900
     16 O4          63.1310    52.5600    46.5920 o          1 LIG      -0.599500
     17 C5          73.0150    31.7790    53.0040 c          1 LIG       0.639100
     18 N5          65.1940    47.8550    48.4790 n          1 LIG      -0.519400
     19 O5          65.3760    46.0790    46.9920 o          1 LIG      -0.575500
     20 C6          72.0700    31.9640    50.8540 c3         1 LIG       0.127700
     21 N6          64.8560    51.3260    47.3620 ns         1 LIG      -0.594500
     22 O6          65.2490    49.1320    50.4170 o          1 LIG      -0.555500
     23 C7          71.9170    35.3300    54.0940 ce         1 LIG       0.560500
     24 N7          72.1740    34.5930    56.9630 na         1 LIG      -0.245800
     25 O7          64.9140    48.0290    55.2700 o          1 LIG      -0.606100
     26 C8          72.2630    36.3770    53.1120 ca         1 LIG      -0.138900
     27 O8          67.6040    37.9190    57.4380 o          1 LIG      -0.589100
     28 C9          72.2350    37.7210    53.4690 ca         1 LIG      -0.094000
     29 C10         72.5580    38.7050    52.5520 ca         1 LIG      -0.128500
     30 C11         72.9100    38.3400    51.2720 ca         1 LIG       0.022400
     31 C12         72.9470    37.0180    50.8890 ca         1 LIG      -0.128500
     32 C13         72.6230    36.0390    51.8110 ca         1 LIG      -0.094000
     33 C14         70.9690    35.6860    55.1550 cc         1 LIG      -0.222900
     34 C15         71.1060    35.3400    56.4800 cd         1 LIG      -0.021300
     35 C16         69.0620    36.6550    56.0810 cd         1 LIG      -0.215700
     36 C17         67.7840    37.3750    56.3500 c          1 LIG       0.693700
     37 C18         65.4460    37.4400    55.6370 c3         1 LIG       0.079000
     38 C19         65.0600    38.6440    56.4740 c3         1 LIG      -0.112400
     39 C20         64.4660    39.7790    55.6560 c3         1 LIG      -0.081400
     40 C21         64.8830    41.1620    56.1290 c3         1 LIG      -0.079400
     41 C22         63.9860    41.7390    57.2120 c3         1 LIG      -0.078400
     42 C23         63.4700    43.1360    56.9050 c3         1 LIG      -0.081400
     43 C24         64.5120    44.2290    57.0780 c3         1 LIG      -0.106400
     44 C25         64.1160    45.5420    56.4310 c3         1 LIG       0.081000
     45 C26         65.3640    46.9580    54.8700 c          1 LIG       0.621100
     46 C27         66.5780    46.9430    53.9730 c3         1 LIG       0.044400
     47 C28         66.2920    46.3770    51.6710 ca         1 LIG       0.179100
     48 C29         66.7080    45.0740    51.8990 ca         1 LIG      -0.179000
     49 C30         66.7390    44.1670    50.8490 ca         1 LIG      -0.079000
     50 C31         66.3580    44.5510    49.5730 ca         1 LIG      -0.089000
     51 C32         65.9430    45.8630    49.3580 ca         1 LIG      -0.107600
     52 C33         65.4880    46.5340    48.1150 c          1 LIG       0.734100
     53 C34         64.7090    48.8740    47.5520 c6         1 LIG       0.058700
     54 C35         63.2120    49.0950    47.7230 c6         1 LIG      -0.096400
     55 C36         62.7600    50.2020    46.7780 c6         1 LIG      -0.154400
     56 C37         63.5730    51.4550    46.8950 c          1 LIG       0.703500
     57 C38         65.4910    50.1620    47.7150 c          1 LIG       0.682500
     58 C39         65.9040    46.7800    50.3850 ca         1 LIG      -0.172600
     59 C40         65.4240    48.0740    49.8420 c          1 LIG       0.744100
     60 C41         69.7760    36.4530    54.9210 cc         1 LIG      -0.021300
     61 C42         69.3540    36.9730    53.5780 c3         1 LIG      -0.058800
     62 S           69.8120    35.9280    57.4650 ss         1 LIG       0.171200
     63 H           73.4030    35.5480    59.9730 hc         1 LIG       0.068700
     64 H1          71.7020    35.5930    59.5750 hc         1 LIG       0.068700
     65 H2          72.8150    36.6780    58.7770 hc         1 LIG       0.068700
     66 H3          71.0640    33.0420    55.0130 h1         1 LIG       0.086700
     67 H4          67.1860    37.3760    54.4370 hn         1 LIG       0.306500
     68 H5          71.9530    31.0270    54.6620 hc         1 LIG       0.104700
     69 H6          73.5870    31.5970    55.0130 hc         1 LIG       0.104700
     70 H7          64.9340    45.0320    54.5520 hn         1 LIG       0.319500
     71 H8          71.1950    32.3510    50.3750 h1         1 LIG       0.049700
     72 H9          72.1380    30.9110    50.6760 h1         1 LIG       0.049700
     73 H10         72.9370    32.4490    50.4570 h1         1 LIG       0.049700
     74 H11         65.3770    52.1570    47.4540 hn         1 LIG       0.341500
     75 H12         71.9700    37.9870    54.4300 ha         1 LIG       0.149000
     76 H13         72.5350    39.7000    52.8240 ha         1 LIG       0.162500
     77 H14         73.2130    36.7610    49.9260 ha         1 LIG       0.162500
     78 H15         72.6490    35.0460    51.5310 ha         1 LIG       0.149000
     79 H16         65.1640    36.5510    56.1610 h1         1 LIG       0.067700
     80 H17         64.9380    37.5150    54.6980 h1         1 LIG       0.067700
     81 H18         65.9350    39.0060    56.9720 hc         1 LIG       0.054700
     82 H19         64.3080    38.3230    57.1640 hc         1 LIG       0.054700
     83 H20         63.4000    39.7110    55.7110 hc         1 LIG       0.036700
     84 H21         64.8340    39.6680    54.6570 hc         1 LIG       0.036700
     85 H22         64.8660    41.8250    55.2890 hc         1 LIG       0.042700
     86 H23         65.8600    41.0630    56.5550 hc         1 LIG       0.042700
     87 H24         64.5430    41.7780    58.1250 hc         1 LIG       0.042700
     88 H25         63.1310    41.1000    57.2800 hc         1 LIG       0.042700
     89 H26         62.6510    43.3440    57.5610 hc         1 LIG       0.040700
     90 H27         63.1820    43.1410    55.8740 hc         1 LIG       0.040700
     91 H28         65.4290    43.8970    56.6390 hc         1 LIG       0.053200
     92 H29         64.6110    44.4100    58.1280 hc         1 LIG       0.053200
     93 H30         64.3310    46.3400    57.1110 h1         1 LIG       0.066200
     94 H31         63.0710    45.4960    56.2040 h1         1 LIG       0.066200
     95 H32         66.9860    45.9540    53.9520 h1         1 LIG       0.096700
     96 H33         67.2980    47.6350    54.3580 h1         1 LIG       0.096700
     97 H34         66.9930    44.7800    52.8460 ha         1 LIG       0.171000
     98 H35         67.0490    43.1970    51.0200 ha         1 LIG       0.153000
     99 H36         66.3820    43.8750    48.7940 ha         1 LIG       0.169000
    100 H37         64.8670    48.5260    46.5520 h1         1 LIG       0.107700
    101 H38         63.0050    49.3800    48.7330 hc         1 LIG       0.079200
    102 H39         62.6860    48.1910    47.4970 hc         1 LIG       0.079200
    103 H40         61.7400    50.4380    46.9960 hc         1 LIG       0.087700
    104 H41         62.8870    49.8360    45.7800 hc         1 LIG       0.087700
    105 H42         70.0740    36.6840    52.8410 hc         1 LIG       0.059700
    106 H43         69.2890    38.0400    53.6130 hc         1 LIG       0.059700
    107 H44         68.3980    36.5650    53.3220 hc         1 LIG       0.059700
@<TRIPOS>BOND
     1     1     5 2   
     2     1     6 1   
     3     2     5 1   
     4     2    63 1   
     5     2    64 1   
     6     2    65 1   
     7     3    17 1   
     8     3    20 1   
     9     4    30 1   
    10     5    24 1   
    11     6     8 2   
    12     7    17 2   
    13     8    11 1   
    14     8    24 1   
    15     9    11 1   
    16     9    23 2   
    17    10    46 1   
    18    10    47 1   
    19    11    14 1   
    20    11    66 1   
    21    12    36 1   
    22    12    37 1   
    23    12    67 1   
    24    13    57 2   
    25    14    17 1   
    26    14    68 1   
    27    14    69 1   
    28    15    44 1   
    29    15    45 1   
    30    15    70 1   
    31    16    56 2   
    32    18    52 1   
    33    18    53 1   
    34    18    59 1   
    35    19    52 2   
    36    20    71 1   
    37    20    72 1   
    38    20    73 1   
    39    21    56 1   
    40    21    57 1   
    41    21    74 1   
    42    22    59 2   
    43    23    26 1   
    44    23    33 1   
    45    24    34 1   
    46    25    45 2   
    47    26    28 ar  
    48    26    32 ar  
    49    27    36 2   
    50    28    29 ar  
    51    28    75 1   
    52    29    30 ar  
    53    29    76 1   
    54    30    31 ar  
    55    31    32 ar  
    56    31    77 1   
    57    32    78 1   
    58    33    34 2   
    59    33    60 1   
    60    34    62 1   
    61    35    36 1   
    62    35    60 2   
    63    35    62 1   
    64    37    38 1   
    65    37    79 1   
    66    37    80 1   
    67    38    39 1   
    68    38    81 1   
    69    38    82 1   
    70    39    40 1   
    71    39    83 1   
    72    39    84 1   
    73    40    41 1   
    74    40    85 1   
    75    40    86 1   
    76    41    42 1   
    77    41    87 1   
    78    41    88 1   
    79    42    43 1   
    80    42    89 1   
    81    42    90 1   
    82    43    44 1   
    83    43    91 1   
    84    43    92 1   
    85    44    93 1   
    86    44    94 1   
    87    45    46 1   
    88    46    95 1   
    89    46    96 1   
    90    47    48 ar  
    91    47    58 ar  
    92    48    49 ar  
    93    48    97 1   
    94    49    50 ar  
    95    49    98 1   
    96    50    51 ar  
    97    50    99 1   
    98    51    52 1   
    99    51    58 ar  
   100    53    54 1   
   101    53    57 1   
   102    53   100 1   
   103    54    55 1   
   104    54   101 1   
   105    54   102 1   
   106    55    56 1   
   107    55   103 1   
   108    55   104 1   
   109    58    59 1   
   110    60    61 1   
   111    61   105 1   
   112    61   106 1   
   113    61   107 1   
@<TRIPOS>SUBSTRUCTURE
     1 LIG         1 TEMP              0 ****  ****    0 ROOT
