@<TRIPOS>MOLECULE
6bn7
 107 113 0 0 0
SMALL
USER_CHARGES

@<TRIPOS>ATOM
      1 N          73.8310   33.7530   58.1310 N.ar    1  RN35021    -0.1342
      2 C          72.6930   35.6970   59.1860 C.3     1  RN35021    -0.0041
      3 O          71.9890   32.2090   52.2780 O.3     1  RN35021    -0.4679
      4 CL         73.3170   39.5760   50.1140 Cl      1  RN35021    -0.0835
      5 C1         72.9150   34.6860   58.1220 C.ar    1  RN35021     0.1353
      6 N1         73.7070   33.0170   56.9580 N.ar    1  RN35021    -0.1318
      7 O1         74.0650   31.4350   52.5340 O.2     1  RN35021    -0.2508
      8 C2         72.7120   33.5290   56.2680 C.ar    1  RN35021     0.1635
      9 N2         72.4710   34.1820   53.9540 N.2     1  RN35021    -0.2710
     10 O2         66.2320   47.3340   52.6480 O.3     1  RN35021    -0.4820
     11 C3         72.1270   33.1370   54.9290 C.3     1  RN35021     0.1213
     12 N3         66.8770   37.3940   55.3710 N.am    1  RN35021    -0.3109
     13 O3         66.6420   50.1640   48.1450 O.2     1  RN35021    -0.2733
     14 C4         72.6840   31.7840   54.4700 C.3     1  RN35021     0.0743
     15 N4         64.8350   45.7780   55.1870 N.am    1  RN35021    -0.3125
     16 O4         63.1310   52.5600   46.5920 O.2     1  RN35021    -0.2754
     17 C5         73.0150   31.7790   53.0040 C.2     1  RN35021     0.3093
     18 N5         65.1940   47.8550   48.4790 N.am    1  RN35021    -0.2219
     19 O5         65.3760   46.0790   46.9920 O.2     1  RN35021    -0.2695
     20 C6         72.0700   31.9640   50.8540 C.3     1  RN35021     0.0817
     21 N6         64.8560   51.3260   47.3620 N.am    1  RN35021    -0.2548
     22 O6         65.2490   49.1320   50.4170 O.2     1  RN35021    -0.2694
     23 C7         71.9170   35.3300   54.0940 C.2     1  RN35021     0.0763
     24 N7         72.1740   34.5930   56.9630 N.ar    1  RN35021    -0.2746
     25 O7         64.9140   48.0290   55.2700 O.2     1  RN35021    -0.2721
     26 C8         72.2630   36.3770   53.1120 C.ar    1  RN35021     0.0007
     27 O8         67.6040   37.9190   57.4380 O.2     1  RN35021    -0.2696
     28 C9         72.2350   37.7210   53.4690 C.ar    1  RN35021    -0.0512
     29 C10        72.5580   38.7050   52.5520 C.ar    1  RN35021    -0.0428
     30 C11        72.9100   38.3400   51.2720 C.ar    1  RN35021     0.0410
     31 C12        72.9470   37.0180   50.8890 C.ar    1  RN35021    -0.0428
     32 C13        72.6230   36.0390   51.8110 C.ar    1  RN35021    -0.0512
     33 C14        70.9690   35.6860   55.1550 C.ar    1  RN35021     0.0354
     34 C15        71.1060   35.3400   56.4800 C.ar    1  RN35021     0.0973
     35 C16        69.0620   36.6550   56.0810 C.ar    1  RN35021     0.0793
     36 C17        67.7840   37.3750   56.3500 C.2     1  RN35021     0.2510
     37 C18        65.4460   37.4400   55.6370 C.3     1  RN35021     0.0119
     38 C19        65.0600   38.6440   56.4740 C.3     1  RN35021    -0.0374
     39 C20        64.4660   39.7790   55.6560 C.3     1  RN35021    -0.0516
     40 C21        64.8830   41.1620   56.1290 C.3     1  RN35021    -0.0530
     41 C22        63.9860   41.7390   57.2120 C.3     1  RN35021    -0.0530
     42 C23        63.4700   43.1360   56.9050 C.3     1  RN35021    -0.0516
     43 C24        64.5120   44.2290   57.0780 C.3     1  RN35021    -0.0374
     44 C25        64.1160   45.5420   56.4310 C.3     1  RN35021     0.0117
     45 C26        65.3640   46.9580   54.8700 C.2     1  RN35021     0.2507
     46 C27        66.5780   46.9430   53.9730 C.3     1  RN35021     0.1652
     47 C28        66.2920   46.3770   51.6710 C.ar    1  RN35021     0.1340
     48 C29        66.7080   45.0740   51.8990 C.ar    1  RN35021    -0.0191
     49 C30        66.7390   44.1670   50.8490 C.ar    1  RN35021    -0.0575
     50 C31        66.3580   44.5510   49.5730 C.ar    1  RN35021    -0.0487
     51 C32        65.9430   45.8630   49.3580 C.ar    1  RN35021     0.0530
     52 C33        65.4880   46.5340   48.1150 C.2     1  RN35021     0.2546
     53 C34        64.7090   48.8740   47.5520 C.3     1  RN35021     0.1109
     54 C35        63.2120   49.0950   47.7230 C.3     1  RN35021    -0.0170
     55 C36        62.7600   50.2020   46.7780 C.3     1  RN35021     0.0265
     56 C37        63.5730   51.4550   46.8950 C.2     1  RN35021     0.2193
     57 C38        65.4910   50.1620   47.7150 C.2     1  RN35021     0.2402
     58 C39        65.9040   46.7800   50.3850 C.ar    1  RN35021     0.0910
     59 C40        65.4240   48.0740   49.8420 C.2     1  RN35021     0.2580
     60 C41        69.7760   36.4530   54.9210 C.ar    1  RN35021    -0.0200
     61 C42        69.3540   36.9730   53.5780 C.3     1  RN35021    -0.0378
     62 S          69.8120   35.9280   57.4650 S.2     1  RN35021    -0.0651
     63 H          73.4026   35.5483   59.9729 H       1  RN35021     0.0308
     64 H          71.7017   35.5933   59.5753 H       1  RN35021     0.0308
     65 H          72.8146   36.6781   58.7767 H       1  RN35021     0.0308
     66 H          71.0645   33.0423   55.0127 H       1  RN35021     0.0631
     67 H          67.1862   37.3763   54.4365 H       1  RN35021     0.1490
     68 H          71.9529   31.0266   54.6616 H       1  RN35021     0.0403
     69 H          73.5868   31.5970   55.0131 H       1  RN35021     0.0403
     70 H          64.9344   45.0321   54.5522 H       1  RN35021     0.1488
     71 H          71.1948   32.3508   50.3752 H       1  RN35021     0.0661
     72 H          72.1377   30.9110   50.6765 H       1  RN35021     0.0661
     73 H          72.9374   32.4490   50.4574 H       1  RN35021     0.0661
     74 H          65.3766   52.1566   47.4537 H       1  RN35021     0.1575
     75 H          71.9699   37.9875   54.4301 H       1  RN35021     0.0625
     76 H          72.5354   39.7003   52.8239 H       1  RN35021     0.0632
     77 H          73.2132   36.7606   49.9257 H       1  RN35021     0.0632
     78 H          72.6486   35.0461   51.5307 H       1  RN35021     0.0625
     79 H          65.1637   36.5508   56.1609 H       1  RN35021     0.0462
     80 H          64.9385   37.5150   54.6980 H       1  RN35021     0.0462
     81 H          65.9351   39.0061   56.9721 H       1  RN35021     0.0280
     82 H          64.3076   38.3227   57.1636 H       1  RN35021     0.0280
     83 H          63.3995   39.7115   55.7106 H       1  RN35021     0.0266
     84 H          64.8337   39.6680   54.6573 H       1  RN35021     0.0266
     85 H          64.8660   41.8246   55.2891 H       1  RN35021     0.0265
     86 H          65.8597   41.0632   56.5547 H       1  RN35021     0.0265
     87 H          64.5427   41.7785   58.1249 H       1  RN35021     0.0265
     88 H          63.1305   41.0999   57.2799 H       1  RN35021     0.0265
     89 H          62.6509   43.3444   57.5612 H       1  RN35021     0.0266
     90 H          63.1822   43.1414   55.8744 H       1  RN35021     0.0266
     91 H          65.4292   43.8967   56.6385 H       1  RN35021     0.0280
     92 H          64.6108   44.4098   58.1280 H       1  RN35021     0.0280
     93 H          64.3308   46.3402   57.1105 H       1  RN35021     0.0462
     94 H          63.0713   45.4959   56.2043 H       1  RN35021     0.0462
     95 H          66.9864   45.9542   53.9517 H       1  RN35021     0.0795
     96 H          67.2978   47.6348   54.3581 H       1  RN35021     0.0795
     97 H          66.9935   44.7798   52.8461 H       1  RN35021     0.0654
     98 H          67.0487   43.1975   51.0200 H       1  RN35021     0.0619
     99 H          66.3815   43.8748   48.7937 H       1  RN35021     0.0625
    100 H          64.8669   48.5264   46.5524 H       1  RN35021     0.0602
    101 H          63.0050   49.3798   48.7334 H       1  RN35021     0.0293
    102 H          62.6861   48.1910   47.4969 H       1  RN35021     0.0293
    103 H          61.7396   50.4385   46.9965 H       1  RN35021     0.0359
    104 H          62.8865   49.8361   45.7805 H       1  RN35021     0.0359
    105 H          70.0740   36.6838   52.8412 H       1  RN35021     0.0278
    106 H          69.2888   38.0404   53.6132 H       1  RN35021     0.0278
    107 H          68.3983   36.5655   53.3220 H       1  RN35021     0.0278
@<TRIPOS>BOND
     1     1     5   ar
     2     1     6   ar
     3     2     5    1
     4     3    17    1
     5     3    20    1
     6     5    24   ar
     7     6     8   ar
     8     8    11    1
     9     8    24   ar
    10     9    11    1
    11    11    14    1
    12    14    17    1
    13     7    17    2
    14     9    23    2
    15    23    26    1
    16    26    28   ar
    17    28    29   ar
    18    29    30   ar
    19     4    30    1
    20    30    31   ar
    21    31    32   ar
    22    26    32   ar
    23    23    33    1
    24    33    34   ar
    25    33    60   ar
    26    24    34    1
    27    34    62   ar
    28    35    36    1
    29    35    60   ar
    30    35    62   ar
    31    12    36   am
    32    27    36    2
    33    12    37    1
    34    37    38    1
    35    38    39    1
    36    39    40    1
    37    40    41    1
    38    41    42    1
    39    42    43    1
    40    43    44    1
    41    15    44    1
    42    15    45   am
    43    25    45    2
    44    45    46    1
    45    10    46    1
    46    10    47    1
    47    47    48   ar
    48    47    58   ar
    49    48    49   ar
    50    49    50   ar
    51    50    51   ar
    52    51    52    1
    53    51    58   ar
    54    18    52   am
    55    19    52    2
    56    18    53    1
    57    53    54    1
    58    53    57    1
    59    54    55    1
    60    55    56    1
    61    16    56    2
    62    21    56   am
    63    13    57    2
    64    21    57   am
    65    58    59    1
    66    18    59   am
    67    22    59    2
    68    60    61    1
    69     2    63    1
    70     2    64    1
    71     2    65    1
    72    11    66    1
    73    12    67    1
    74    14    68    1
    75    14    69    1
    76    15    70    1
    77    20    71    1
    78    20    72    1
    79    20    73    1
    80    21    74    1
    81    28    75    1
    82    29    76    1
    83    31    77    1
    84    32    78    1
    85    37    79    1
    86    37    80    1
    87    38    81    1
    88    38    82    1
    89    39    83    1
    90    39    84    1
    91    40    85    1
    92    40    86    1
    93    41    87    1
    94    41    88    1
    95    42    89    1
    96    42    90    1
    97    43    91    1
    98    43    92    1
    99    44    93    1
   100    44    94    1
   101    46    95    1
   102    46    96    1
   103    48    97    1
   104    49    98    1
   105    50    99    1
   106    53   100    1
   107    54   101    1
   108    54   102    1
   109    55   103    1
   110    55   104    1
   111    61   105    1
   112    61   106    1
   113    61   107    1
