# created with PyMOL 2.5.5
@<TRIPOS>MOLECULE
6bn7
62 68 1                 
SMALL
USER_CHARGES
@<TRIPOS>ATOM
1	   N	73.831	33.753	58.131	N.2	1	RN3502	0.000	
2	   C	72.693	35.697	59.186	C.3	1	RN3502	0.000	
3	   O	71.989	32.209	52.278	O.3	1	RN3502	0.000	
4	  CL	73.317	39.576	50.114	Cl	1	RN3502	0.000	
5	  C1	72.915	34.686	58.122	C.2	1	RN3502	0.000	
6	  N1	73.707	33.017	56.958	N.2	1	RN3502	0.000	
7	  O1	74.065	31.435	52.534	O.co2	1	RN3502	0.000	
8	  C2	72.712	33.529	56.268	C.2	1	RN3502	0.000	
9	  N2	72.471	34.182	53.954	N.2	1	RN3502	0.000	
10	  O2	66.232	47.334	52.648	O.3	1	RN3502	0.000	
11	  C3	72.127	33.137	54.929	C.3	1	RN3502	0.000	
12	  N3	66.877	37.394	55.371	N.pl3	1	RN3502	0.000	
13	  O3	66.642	50.164	48.145	O.2	1	RN3502	0.000	
14	  C4	72.684	31.784	54.470	C.3	1	RN3502	0.000	
15	  N4	64.835	45.778	55.187	N.pl3	1	RN3502	0.000	
16	  O4	63.131	52.560	46.592	O.2	1	RN3502	0.000	
17	  C5	73.015	31.779	53.004	C.2	1	RN3502	0.000	
18	  N5	65.194	47.855	48.479	N.2	1	RN3502	0.000	
19	  O5	65.376	46.079	46.992	O.2	1	RN3502	0.000	
20	  C6	72.070	31.964	50.854	C.3	1	RN3502	0.000	
21	  N6	64.856	51.326	47.362	N.pl3	1	RN3502	0.000	
22	  O6	65.249	49.132	50.417	O.2	1	RN3502	0.000	
23	  C7	71.917	35.330	54.094	C.2	1	RN3502	0.000	
24	  N7	72.174	34.593	56.963	N.2	1	RN3502	0.000	
25	  O7	64.914	48.029	55.270	O.2	1	RN3502	0.000	
26	  C8	72.263	36.377	53.112	C.2	1	RN3502	0.000	
27	  O8	67.604	37.919	57.438	O.2	1	RN3502	0.000	
28	  C9	72.235	37.721	53.469	C.2	1	RN3502	0.000	
29	 C10	72.558	38.705	52.552	C.2	1	RN3502	0.000	
30	 C11	72.910	38.340	51.272	C.2	1	RN3502	0.000	
31	 C12	72.947	37.018	50.889	C.2	1	RN3502	0.000	
32	 C13	72.623	36.039	51.811	C.2	1	RN3502	0.000	
33	 C14	70.969	35.686	55.155	C.2	1	RN3502	0.000	
34	 C15	71.106	35.340	56.480	C.2	1	RN3502	0.000	
35	 C16	69.062	36.655	56.081	C.2	1	RN3502	0.000	
36	 C17	67.784	37.375	56.350	C.2	1	RN3502	0.000	
37	 C18	65.446	37.440	55.637	C.3	1	RN3502	0.000	
38	 C19	65.060	38.644	56.474	C.3	1	RN3502	0.000	
39	 C20	64.466	39.779	55.656	C.3	1	RN3502	0.000	
40	 C21	64.883	41.162	56.129	C.3	1	RN3502	0.000	
41	 C22	63.986	41.739	57.212	C.3	1	RN3502	0.000	
42	 C23	63.470	43.136	56.905	C.3	1	RN3502	0.000	
43	 C24	64.512	44.229	57.078	C.3	1	RN3502	0.000	
44	 C25	64.116	45.542	56.431	C.3	1	RN3502	0.000	
45	 C26	65.364	46.958	54.870	C.2	1	RN3502	0.000	
46	 C27	66.578	46.943	53.973	C.3	1	RN3502	0.000	
47	 C28	66.292	46.377	51.671	C.2	1	RN3502	0.000	
48	 C29	66.708	45.074	51.899	C.2	1	RN3502	0.000	
49	 C30	66.739	44.167	50.849	C.2	1	RN3502	0.000	
50	 C31	66.358	44.551	49.573	C.2	1	RN3502	0.000	
51	 C32	65.943	45.863	49.358	C.2	1	RN3502	0.000	
52	 C33	65.488	46.534	48.115	C.2	1	RN3502	0.000	
53	 C34	64.709	48.874	47.552	C.3	1	RN3502	0.000	
54	 C35	63.212	49.095	47.723	C.3	1	RN3502	0.000	
55	 C36	62.760	50.202	46.778	C.3	1	RN3502	0.000	
56	 C37	63.573	51.455	46.895	C.2	1	RN3502	0.000	
57	 C38	65.491	50.162	47.715	C.2	1	RN3502	0.000	
58	 C39	65.904	46.780	50.385	C.2	1	RN3502	0.000	
59	 C40	65.424	48.074	49.842	C.2	1	RN3502	0.000	
60	 C41	69.776	36.453	54.921	C.2	1	RN3502	0.000	
61	 C42	69.354	36.973	53.578	C.3	1	RN3502	0.000	
62	   S	69.812	35.928	57.465	S.2	1	RN3502	0.000	
@<TRIPOS>BOND
1 1 5 ar
2 1 6 ar
3 2 5 1
4 3 17 1
5 3 20 1
6 5 24 ar
7 6 8 ar
8 8 11 1
9 8 24 ar
10 9 11 1
11 11 14 1
12 14 17 1
13 7 17 2
14 9 23 2
15 23 26 1
16 26 28 ar
17 28 29 ar
18 29 30 ar
19 4 30 1
20 30 31 ar
21 31 32 ar
22 26 32 ar
23 23 33 1
24 33 34 ar
25 33 60 ar
26 24 34 1
27 34 62 ar
28 35 36 1
29 35 60 ar
30 35 62 ar
31 12 36 1
32 27 36 2
33 12 37 1
34 37 38 1
35 38 39 1
36 39 40 1
37 40 41 1
38 41 42 1
39 42 43 1
40 43 44 1
41 15 44 1
42 15 45 1
43 25 45 2
44 45 46 1
45 10 46 1
46 10 47 1
47 47 48 ar
48 47 58 ar
49 48 49 ar
50 49 50 ar
51 50 51 ar
52 51 52 ar
53 51 58 ar
54 18 52 ar
55 19 52 2
56 18 53 1
57 53 54 1
58 53 57 1
59 54 55 1
60 55 56 1
61 16 56 2
62 21 56 1
63 13 57 2
64 21 57 1
65 58 59 ar
66 18 59 ar
67 22 59 2
68 60 61 1
@<TRIPOS>SUBSTRUCTURE
1	RN3502	1	GROUP	1 B	RN3
