@<TRIPOS>MOLECULE
6boy
 104 110 0 0 0
SMALL
USER_CHARGES

@<TRIPOS>ATOM
      1 N          76.7220   32.8550   57.5780 N.ar    1  RN65021    -0.1342
      2 C          75.4010   34.6710   58.6480 C.3     1  RN65021    -0.0041
      3 O          68.8620   41.5050   48.2970 O.3     1  RN65021    -0.4820
      4 CL         76.2300   39.1370   50.1740 Cl      1  RN65021    -0.0835
      5 C1         75.7280   33.7060   57.5680 C.ar    1  RN65021     0.1353
      6 N1         76.7000   32.1520   56.3760 N.ar    1  RN65021    -0.1318
      7 O1         65.8690   50.5980   47.0500 O.2     1  RN65021    -0.2754
      8 C2         75.6900   32.6030   55.6680 C.ar    1  RN65021     0.1635
      9 N2         75.9720   31.2280   51.3400 N.am    1  RN65021    -0.3152
     10 O2         69.6080   48.1360   47.6860 O.2     1  RN65021    -0.2733
     11 C3         75.2760   32.2180   54.2650 C.3     1  RN65021     0.1195
     12 N3         70.1860   38.9390   47.9840 N.am    1  RN65021    -0.3125
     13 O3         68.6170   47.0530   50.1800 O.2     1  RN65021    -0.2695
     14 C4         75.9050   30.9250   53.7320 C.3     1  RN65021     0.0534
     15 N4         68.1610   45.8030   48.2730 N.am    1  RN65021    -0.2219
     16 O4         67.9660   44.0350   46.7770 O.2     1  RN65021    -0.2694
     17 C5         75.3750   30.6010   52.3520 C.2     1  RN65021     0.2155
     18 N5         67.7090   49.3320   47.3730 N.am    1  RN65021    -0.2548
     19 O5         71.9860   40.2790   47.7370 O.2     1  RN65021    -0.2721
     20 C6         75.6200   30.9860   49.9480 C.3     1  RN65021     0.0116
     21 N6         75.5520   33.3890   53.4210 N.2     1  RN65021    -0.2710
     22 O6         74.4490   29.8110   52.1910 O.2     1  RN65021    -0.2757
     23 C7         75.4880   32.2690   49.1500 C.3     1  RN65021    -0.0374
     24 N7         75.0320   33.5840   56.3820 N.ar    1  RN65021    -0.2746
     25 C8         74.2150   33.0540   49.4300 C.3     1  RN65021    -0.0516
     26 C9         74.1340   34.3800   48.6840 C.3     1  RN65021    -0.0530
     27 C10        72.9200   35.2370   49.0230 C.3     1  RN65021    -0.0530
     28 C11        73.1470   36.7300   48.8150 C.3     1  RN65021    -0.0516
     29 C12        71.9630   37.6380   49.1420 C.3     1  RN65021    -0.0374
     30 C13        70.9110   37.6760   48.0500 C.3     1  RN65021     0.0117
     31 C14        70.7700   40.1080   47.7140 C.2     1  RN65021     0.2507
     32 C15        69.8670   41.2560   47.3260 C.3     1  RN65021     0.1652
     33 C16        69.1470   42.3920   49.3000 C.ar    1  RN65021     0.1340
     34 C17        69.6710   42.0020   50.5230 C.ar    1  RN65021    -0.0191
     35 C18        69.8760   42.9450   51.5150 C.ar    1  RN65021    -0.0575
     36 C19        69.5620   44.2740   51.2950 C.ar    1  RN65021    -0.0487
     37 C20        69.0420   44.6530   50.0610 C.ar    1  RN65021     0.0530
     38 C21        68.6130   45.9900   49.5850 C.2     1  RN65021     0.2546
     39 C22        67.5930   46.8610   47.4370 C.3     1  RN65021     0.1109
     40 C23        68.3930   48.1480   47.5160 C.2     1  RN65021     0.2402
     41 C24        66.3640   49.4780   47.1510 C.2     1  RN65021     0.2193
     42 C25        65.5530   48.2230   47.0480 C.3     1  RN65021     0.0265
     43 C26        66.1400   47.0720   47.8510 C.3     1  RN65021    -0.0170
     44 C27        68.8320   43.7380   49.0440 C.ar    1  RN65021     0.0910
     45 C28        68.2720   44.4640   47.8740 C.2     1  RN65021     0.2580
     46 C29        74.8330   34.4330   53.6010 C.2     1  RN65021     0.0763
     47 C30        75.1530   35.6020   52.7550 C.ar    1  RN65021     0.0007
     48 C31        74.8930   36.8990   53.1860 C.ar    1  RN65021    -0.0512
     49 C32        75.2230   37.9860   52.3970 C.ar    1  RN65021    -0.0428
     50 C33        75.8170   37.7720   51.1730 C.ar    1  RN65021     0.0410
     51 C34        76.0890   36.5000   50.7220 C.ar    1  RN65021    -0.0428
     52 C35        75.7540   35.4180   51.5150 C.ar    1  RN65021    -0.0512
     53 C36        73.7180   34.5670   54.5710 C.ar    1  RN65021     0.0349
     54 C37        73.8740   34.2040   55.8890 C.ar    1  RN65021     0.0969
     55 C38        71.6050   35.0640   55.4220 C.ar    1  RN65021    -0.0077
     56 C39        70.1790   35.4990   55.5750 C.3     1  RN65021    -0.0331
     57 C40        72.3820   35.0500   54.3060 C.ar    1  RN65021    -0.0293
     58 C41        71.8610   35.4410   52.9550 C.3     1  RN65021    -0.0383
     59 S          72.4510   34.4740   56.8220 S.2     1  RN65021    -0.0750
     60 H          76.0968   34.5551   59.4526 H       1  RN65021     0.0308
     61 H          74.4094   34.4849   59.0044 H       1  RN65021     0.0308
     62 H          75.4612   35.6684   58.2654 H       1  RN65021     0.0308
     63 H          76.6801   31.8817   51.5413 H       1  RN65021     0.1487
     64 H          74.2353   31.9695   54.2583 H       1  RN65021     0.0631
     65 H          69.2152   38.9289   48.1471 H       1  RN65021     0.1488
     66 H          75.6695   30.1201   54.3965 H       1  RN65021     0.0384
     67 H          76.9649   31.0582   53.6707 H       1  RN65021     0.0384
     68 H          68.2390   50.1592   47.4365 H       1  RN65021     0.1575
     69 H          74.6862   30.4646   49.9160 H       1  RN65021     0.0462
     70 H          76.4078   30.4101   49.5091 H       1  RN65021     0.0462
     71 H          75.5056   32.0195   48.1096 H       1  RN65021     0.0280
     72 H          76.3044   32.8961   49.4419 H       1  RN65021     0.0280
     73 H          74.1660   33.2540   50.4800 H       1  RN65021     0.0266
     74 H          73.3973   32.4540   49.0890 H       1  RN65021     0.0266
     75 H          74.1094   34.1697   47.6351 H       1  RN65021     0.0265
     76 H          74.9918   34.9448   48.9842 H       1  RN65021     0.0265
     77 H          72.6671   35.0735   50.0497 H       1  RN65021     0.0265
     78 H          72.1348   34.9443   48.3577 H       1  RN65021     0.0265
     79 H          73.4027   36.8824   47.7872 H       1  RN65021     0.0266
     80 H          73.9196   37.0035   49.5029 H       1  RN65021     0.0266
     81 H          72.3298   38.6316   49.2938 H       1  RN65021     0.0280
     82 H          71.4938   37.2408   50.0178 H       1  RN65021     0.0280
     83 H          70.2071   36.8906   48.2305 H       1  RN65021     0.0462
     84 H          71.4216   37.5573   47.1172 H       1  RN65021     0.0462
     85 H          70.4618   42.1382   47.2129 H       1  RN65021     0.0795
     86 H          69.3789   40.9927   46.4109 H       1  RN65021     0.0795
     87 H          69.9073   41.0119   50.6930 H       1  RN65021     0.0654
     88 H          70.2659   42.6546   52.4253 H       1  RN65021     0.0619
     89 H          69.7115   44.9758   52.0367 H       1  RN65021     0.0625
     90 H          67.6355   46.5591   46.4113 H       1  RN65021     0.0602
     91 H          65.5036   47.9317   46.0196 H       1  RN65021     0.0359
     92 H          64.5835   48.4331   47.4490 H       1  RN65021     0.0359
     93 H          66.0954   47.3043   48.8945 H       1  RN65021     0.0293
     94 H          65.5796   46.1801   47.6631 H       1  RN65021     0.0293
     95 H          74.4488   37.0518   54.1049 H       1  RN65021     0.0625
     96 H          75.0265   38.9457   52.7215 H       1  RN65021     0.0632
     97 H          76.5373   36.3559   49.8037 H       1  RN65021     0.0632
     98 H          75.9527   34.4616   51.1821 H       1  RN65021     0.0625
     99 H          69.8045   35.8326   54.6298 H       1  RN65021     0.0283
    100 H          70.1243   36.2994   56.2830 H       1  RN65021     0.0283
    101 H          69.5901   34.6755   55.9214 H       1  RN65021     0.0283
    102 H          72.6446   35.3538   52.2316 H       1  RN65021     0.0278
    103 H          71.5147   36.4530   52.9855 H       1  RN65021     0.0278
    104 H          71.0520   34.7952   52.6841 H       1  RN65021     0.0278
@<TRIPOS>BOND
     1     1     5   ar
     2     1     6   ar
     3     2     5    1
     4     3    32    1
     5     3    33    1
     6     5    24   ar
     7     6     8   ar
     8     8    11    1
     9     8    24   ar
    10    11    14    1
    11    11    21    1
    12    14    17    1
    13     9    17   am
    14    17    22    2
    15     9    20    1
    16    20    23    1
    17    23    25    1
    18    25    26    1
    19    26    27    1
    20    27    28    1
    21    28    29    1
    22    29    30    1
    23    12    30    1
    24    12    31   am
    25    19    31    2
    26    31    32    1
    27    33    34   ar
    28    33    44   ar
    29    34    35   ar
    30    35    36   ar
    31    36    37   ar
    32    37    38    1
    33    37    44   ar
    34    13    38    2
    35    15    38   am
    36    15    39    1
    37    39    40    1
    38    39    43    1
    39    10    40    2
    40    18    40   am
    41     7    41    2
    42    18    41   am
    43    41    42    1
    44    42    43    1
    45    44    45    1
    46    15    45   am
    47    16    45    2
    48    21    46    2
    49    46    47    1
    50    46    53    1
    51    47    48   ar
    52    47    52   ar
    53    48    49   ar
    54    49    50   ar
    55     4    50    1
    56    50    51   ar
    57    51    52   ar
    58    53    54   ar
    59    53    57   ar
    60    24    54    1
    61    54    59   ar
    62    55    56    1
    63    55    57   ar
    64    55    59   ar
    65    57    58    1
    66     2    60    1
    67     2    61    1
    68     2    62    1
    69     9    63    1
    70    11    64    1
    71    12    65    1
    72    14    66    1
    73    14    67    1
    74    18    68    1
    75    20    69    1
    76    20    70    1
    77    23    71    1
    78    23    72    1
    79    25    73    1
    80    25    74    1
    81    26    75    1
    82    26    76    1
    83    27    77    1
    84    27    78    1
    85    28    79    1
    86    28    80    1
    87    29    81    1
    88    29    82    1
    89    30    83    1
    90    30    84    1
    91    32    85    1
    92    32    86    1
    93    34    87    1
    94    35    88    1
    95    36    89    1
    96    39    90    1
    97    42    91    1
    98    42    92    1
    99    43    93    1
   100    43    94    1
   101    48    95    1
   102    49    96    1
   103    51    97    1
   104    52    98    1
   105    56    99    1
   106    56   100    1
   107    56   101    1
   108    58   102    1
   109    58   103    1
   110    58   104    1
