@<TRIPOS>MOLECULE
LIG
  104   110     1     0     0
SMALL
bcc


@<TRIPOS>ATOM
      1 N           76.7220    32.8550    57.5780 nc         1 LIG      -0.337000
      2 C           75.4010    34.6710    58.6480 c3         1 LIG      -0.124400
      3 O           68.8620    41.5050    48.2970 os         1 LIG      -0.340900
      4 Cl          76.2300    39.1370    50.1740 cl         1 LIG      -0.086400
      5 C1          75.7280    33.7060    57.5680 cd         1 LIG       0.379800
      6 N1          76.7000    32.1520    56.3760 nc         1 LIG      -0.328000
      7 O1          65.8690    50.5980    47.0500 o          1 LIG      -0.599500
      8 C2          75.6900    32.6030    55.6680 cd         1 LIG       0.360800
      9 N2          75.9720    31.2280    51.3400 ns         1 LIG      -0.555900
     10 O2          69.6080    48.1360    47.6860 o          1 LIG      -0.594500
     11 C3          75.2760    32.2180    54.2650 c3         1 LIG       0.116200
     12 N3          70.1860    38.9390    47.9840 ns         1 LIG      -0.549900
     13 O3          68.6170    47.0530    50.1800 o          1 LIG      -0.560500
     14 C4          75.9050    30.9250    53.7320 c3         1 LIG      -0.132400
     15 N4          68.1610    45.8030    48.2730 n          1 LIG      -0.512400
     16 O4          67.9660    44.0350    46.7770 o          1 LIG      -0.579500
     17 C5          75.3750    30.6010    52.3520 c          1 LIG       0.658100
     18 N5          67.7090    49.3320    47.3730 ns         1 LIG      -0.594500
     19 O5          71.9860    40.2790    47.7370 o          1 LIG      -0.596100
     20 C6          75.6200    30.9860    49.9480 c3         1 LIG       0.084000
     21 N6          75.5520    33.3890    53.4210 n2         1 LIG      -0.596900
     22 O6          74.4490    29.8110    52.1910 o          1 LIG      -0.620100
     23 C7          75.4880    32.2690    49.1500 c3         1 LIG      -0.103400
     24 N7          75.0320    33.5840    56.3820 na         1 LIG      -0.240800
     25 C8          74.2150    33.0540    49.4300 c3         1 LIG      -0.083400
     26 C9          74.1340    34.3800    48.6840 c3         1 LIG      -0.081400
     27 C10         72.9200    35.2370    49.0230 c3         1 LIG      -0.081400
     28 C11         73.1470    36.7300    48.8150 c3         1 LIG      -0.077400
     29 C12         71.9630    37.6380    49.1420 c3         1 LIG      -0.104400
     30 C13         70.9110    37.6760    48.0500 c3         1 LIG       0.080000
     31 C14         70.7700    40.1080    47.7140 c          1 LIG       0.643100
     32 C15         69.8670    41.2560    47.3260 c3         1 LIG       0.051400
     33 C16         69.1470    42.3920    49.3000 ca         1 LIG       0.194100
     34 C17         69.6710    42.0020    50.5230 ca         1 LIG      -0.132000
     35 C18         69.8760    42.9450    51.5150 ca         1 LIG      -0.093000
     36 C19         69.5620    44.2740    51.2950 ca         1 LIG      -0.079000
     37 C20         69.0420    44.6530    50.0610 ca         1 LIG      -0.110600
     38 C21         68.6130    45.9900    49.5850 c          1 LIG       0.731100
     39 C22         67.5930    46.8610    47.4370 c6         1 LIG       0.057700
     40 C23         68.3930    48.1480    47.5160 c          1 LIG       0.683500
     41 C24         66.3640    49.4780    47.1510 c          1 LIG       0.703500
     42 C25         65.5530    48.2230    47.0480 c6         1 LIG      -0.154400
     43 C26         66.1400    47.0720    47.8510 c6         1 LIG      -0.096400
     44 C27         68.8320    43.7380    49.0440 ca         1 LIG      -0.195600
     45 C28         68.2720    44.4640    47.8740 c          1 LIG       0.743100
     46 C29         74.8330    34.4330    53.6010 ce         1 LIG       0.564500
     47 C30         75.1530    35.6020    52.7550 ca         1 LIG      -0.134900
     48 C31         74.8930    36.8990    53.1860 ca         1 LIG      -0.096500
     49 C32         75.2230    37.9860    52.3970 ca         1 LIG      -0.131000
     50 C33         75.8170    37.7720    51.1730 ca         1 LIG       0.026400
     51 C34         76.0890    36.5000    50.7220 ca         1 LIG      -0.131000
     52 C35         75.7540    35.4180    51.5150 ca         1 LIG      -0.096500
     53 C36         73.7180    34.5670    54.5710 cc         1 LIG      -0.214900
     54 C37         73.8740    34.2040    55.8890 cd         1 LIG      -0.011300
     55 C38         71.6050    35.0640    55.4220 cd         1 LIG      -0.119400
     56 C39         70.1790    35.4990    55.5750 c3         1 LIG      -0.025800
     57 C40         72.3820    35.0500    54.3060 cc         1 LIG      -0.057300
     58 C41         71.8610    35.4410    52.9550 c3         1 LIG      -0.040800
     59 S           72.4510    34.4740    56.8220 ss         1 LIG       0.061200
     60 H           76.0970    34.5550    59.4530 hc         1 LIG       0.066700
     61 H1          74.4090    34.4850    59.0040 hc         1 LIG       0.066700
     62 H2          75.4610    35.6680    58.2650 hc         1 LIG       0.066700
     63 H3          76.6800    31.8820    51.5410 hn         1 LIG       0.319500
     64 H4          74.2350    31.9690    54.2580 h1         1 LIG       0.082700
     65 H5          69.2150    38.9290    48.1470 hn         1 LIG       0.314500
     66 H6          75.6700    30.1200    54.3960 hc         1 LIG       0.092700
     67 H7          76.9650    31.0580    53.6710 hc         1 LIG       0.092700
     68 H8          68.2390    50.1590    47.4370 hn         1 LIG       0.341500
     69 H9          74.6860    30.4650    49.9160 h1         1 LIG       0.061200
     70 H10         76.4080    30.4100    49.5090 h1         1 LIG       0.061200
     71 H11         75.5060    32.0200    48.1100 hc         1 LIG       0.043700
     72 H12         76.3040    32.8960    49.4420 hc         1 LIG       0.043700
     73 H13         74.1660    33.2540    50.4800 hc         1 LIG       0.049200
     74 H14         73.3970    32.4540    49.0890 hc         1 LIG       0.049200
     75 H15         74.1090    34.1700    47.6350 hc         1 LIG       0.038200
     76 H16         74.9920    34.9450    48.9840 hc         1 LIG       0.038200
     77 H17         72.6670    35.0740    50.0500 hc         1 LIG       0.041200
     78 H18         72.1350    34.9440    48.3580 hc         1 LIG       0.041200
     79 H19         73.4030    36.8820    47.7870 hc         1 LIG       0.044700
     80 H20         73.9200    37.0040    49.5030 hc         1 LIG       0.044700
     81 H21         72.3300    38.6320    49.2940 hc         1 LIG       0.043200
     82 H22         71.4940    37.2410    50.0180 hc         1 LIG       0.043200
     83 H23         70.2070    36.8910    48.2300 h1         1 LIG       0.065700
     84 H24         71.4220    37.5570    47.1170 h1         1 LIG       0.065700
     85 H25         70.4620    42.1380    47.2130 h1         1 LIG       0.097200
     86 H26         69.3790    40.9930    46.4110 h1         1 LIG       0.097200
     87 H27         69.9070    41.0120    50.6930 ha         1 LIG       0.159000
     88 H28         70.2660    42.6550    52.4250 ha         1 LIG       0.150000
     89 H29         69.7120    44.9760    52.0370 ha         1 LIG       0.165000
     90 H30         67.6350    46.5590    46.4110 h1         1 LIG       0.109700
     91 H31         65.5040    47.9320    46.0200 hc         1 LIG       0.088700
     92 H32         64.5840    48.4330    47.4490 hc         1 LIG       0.088700
     93 H33         66.0950    47.3040    48.8950 hc         1 LIG       0.080700
     94 H34         65.5800    46.1800    47.6630 hc         1 LIG       0.080700
     95 H35         74.4490    37.0520    54.1050 ha         1 LIG       0.150500
     96 H36         75.0260    38.9460    52.7220 ha         1 LIG       0.151000
     97 H37         76.5370    36.3560    49.8040 ha         1 LIG       0.151000
     98 H38         75.9530    34.4620    51.1820 ha         1 LIG       0.150500
     99 H39         69.8040    35.8330    54.6300 hc         1 LIG       0.053367
    100 H40         70.1240    36.2990    56.2830 hc         1 LIG       0.053367
    101 H41         69.5900    34.6750    55.9210 hc         1 LIG       0.053367
    102 H42         72.6450    35.3540    52.2320 hc         1 LIG       0.054367
    103 H43         71.5150    36.4530    52.9860 hc         1 LIG       0.054367
    104 H44         71.0520    34.7950    52.6840 hc         1 LIG       0.054367
@<TRIPOS>BOND
     1     1     5 2   
     2     1     6 1   
     3     2     5 1   
     4     2    60 1   
     5     2    61 1   
     6     2    62 1   
     7     3    32 1   
     8     3    33 1   
     9     4    50 1   
    10     5    24 1   
    11     6     8 2   
    12     7    41 2   
    13     8    11 1   
    14     9    17 1   
    15     9    20 1   
    16     9    63 1   
    17    10    40 2   
    18    11    14 1   
    19    11    21 1   
    20    11    64 1   
    21    12    30 1   
    22    12    31 1   
    23    12    65 1   
    24    13    38 2   
    25    14    17 1   
    26    14    66 1   
    27    14    67 1   
    28    15    38 1   
    29    15    39 1   
    30    15    45 1   
    31    16    45 2   
    32    17    22 2   
    33    18    40 1   
    34    18    41 1   
    35    18    68 1   
    36    19    31 2   
    37    20    23 1   
    38    20    69 1   
    39    20    70 1   
    40    21    46 2   
    41    23    25 1   
    42    23    71 1   
    43    23    72 1   
    44     8    24 1   
    45    24    54 1   
    46    25    26 1   
    47    25    73 1   
    48    25    74 1   
    49    26    27 1   
    50    26    75 1   
    51    26    76 1   
    52    27    28 1   
    53    27    77 1   
    54    27    78 1   
    55    28    29 1   
    56    28    79 1   
    57    28    80 1   
    58    29    30 1   
    59    29    81 1   
    60    29    82 1   
    61    30    83 1   
    62    30    84 1   
    63    31    32 1   
    64    32    85 1   
    65    32    86 1   
    66    33    34 ar  
    67    33    44 ar  
    68    34    35 ar  
    69    34    87 1   
    70    35    36 ar  
    71    35    88 1   
    72    36    37 ar  
    73    36    89 1   
    74    37    38 1   
    75    37    44 ar  
    76    39    40 1   
    77    39    43 1   
    78    39    90 1   
    79    41    42 1   
    80    42    43 1   
    81    42    91 1   
    82    42    92 1   
    83    43    93 1   
    84    43    94 1   
    85    44    45 1   
    86    46    47 1   
    87    46    53 1   
    88    47    48 ar  
    89    47    52 ar  
    90    48    49 ar  
    91    48    95 1   
    92    49    50 ar  
    93    49    96 1   
    94    50    51 ar  
    95    51    52 ar  
    96    51    97 1   
    97    52    98 1   
    98    53    54 2   
    99    53    57 1   
   100    54    59 1   
   101    55    56 1   
   102    55    57 2   
   103    55    59 1   
   104    56    99 1   
   105    56   100 1   
   106    56   101 1   
   107    57    58 1   
   108    58   102 1   
   109    58   103 1   
   110    58   104 1   
@<TRIPOS>SUBSTRUCTURE
     1 LIG         1 TEMP              0 ****  ****    0 ROOT
