# created with PyMOL 2.5.5
@<TRIPOS>MOLECULE
6boy
104 110 1               
SMALL
USER_CHARGES
@<TRIPOS>ATOM
1	   N	76.722	32.855	57.578	N.2	1	RN65021	-0.134	
2	   C	75.401	34.671	58.648	C.3	1	RN65021	-0.004	
3	   O	68.862	41.505	48.297	O.3	1	RN65021	-0.482	
4	  CL	76.230	39.137	50.174	Cl	1	RN65021	-0.083	
5	  C1	75.728	33.706	57.568	C.2	1	RN65021	0.135	
6	  N1	76.700	32.152	56.376	N.2	1	RN65021	-0.132	
7	  O1	65.869	50.598	47.050	O.2	1	RN65021	-0.275	
8	  C2	75.690	32.603	55.668	C.2	1	RN65021	0.163	
9	  N2	75.972	31.228	51.340	N.pl3	1	RN65021	-0.315	
10	  O2	69.608	48.136	47.686	O.2	1	RN65021	-0.273	
11	  C3	75.276	32.218	54.265	C.3	1	RN65021	0.119	
12	  N3	70.186	38.939	47.984	N.pl3	1	RN65021	-0.312	
13	  O3	68.617	47.053	50.180	O.2	1	RN65021	-0.269	
14	  C4	75.905	30.925	53.732	C.3	1	RN65021	0.053	
15	  N4	68.161	45.803	48.273	N.pl3	1	RN65021	-0.222	
16	  O4	67.966	44.035	46.777	O.2	1	RN65021	-0.269	
17	  C5	75.375	30.601	52.352	C.2	1	RN65021	0.215	
18	  N5	67.709	49.332	47.373	N.pl3	1	RN65021	-0.255	
19	  O5	71.986	40.279	47.737	O.2	1	RN65021	-0.272	
20	  C6	75.620	30.986	49.948	C.3	1	RN65021	0.012	
21	  N6	75.552	33.389	53.421	N.2	1	RN65021	-0.271	
22	  O6	74.449	29.811	52.191	O.2	1	RN65021	-0.276	
23	  C7	75.488	32.269	49.150	C.3	1	RN65021	-0.037	
24	  N7	75.032	33.584	56.382	N.pl3	1	RN65021	-0.275	
25	  C8	74.215	33.054	49.430	C.3	1	RN65021	-0.052	
26	  C9	74.134	34.380	48.684	C.3	1	RN65021	-0.053	
27	 C10	72.920	35.237	49.023	C.3	1	RN65021	-0.053	
28	 C11	73.147	36.730	48.815	C.3	1	RN65021	-0.052	
29	 C12	71.963	37.638	49.142	C.3	1	RN65021	-0.037	
30	 C13	70.911	37.676	48.050	C.3	1	RN65021	0.012	
31	 C14	70.770	40.108	47.714	C.2	1	RN65021	0.251	
32	 C15	69.867	41.256	47.326	C.3	1	RN65021	0.165	
33	 C16	69.147	42.392	49.300	C.2	1	RN65021	0.134	
34	 C17	69.671	42.002	50.523	C.2	1	RN65021	-0.019	
35	 C18	69.876	42.945	51.515	C.2	1	RN65021	-0.058	
36	 C19	69.562	44.274	51.295	C.2	1	RN65021	-0.049	
37	 C20	69.042	44.653	50.061	C.2	1	RN65021	0.053	
38	 C21	68.613	45.990	49.585	C.2	1	RN65021	0.255	
39	 C22	67.593	46.861	47.437	C.3	1	RN65021	0.111	
40	 C23	68.393	48.148	47.516	C.2	1	RN65021	0.240	
41	 C24	66.364	49.478	47.151	C.2	1	RN65021	0.219	
42	 C25	65.553	48.223	47.048	C.3	1	RN65021	0.026	
43	 C26	66.140	47.072	47.851	C.3	1	RN65021	-0.017	
44	 C27	68.832	43.738	49.044	C.2	1	RN65021	0.091	
45	 C28	68.272	44.464	47.874	C.2	1	RN65021	0.258	
46	 C29	74.833	34.433	53.601	C.2	1	RN65021	0.076	
47	 C30	75.153	35.602	52.755	C.2	1	RN65021	0.001	
48	 C31	74.893	36.899	53.186	C.2	1	RN65021	-0.051	
49	 C32	75.223	37.986	52.397	C.2	1	RN65021	-0.043	
50	 C33	75.817	37.772	51.173	C.2	1	RN65021	0.041	
51	 C34	76.089	36.500	50.722	C.2	1	RN65021	-0.043	
52	 C35	75.754	35.418	51.515	C.2	1	RN65021	-0.051	
53	 C36	73.718	34.567	54.571	C.2	1	RN65021	0.035	
54	 C37	73.874	34.204	55.889	C.2	1	RN65021	0.097	
55	 C38	71.605	35.064	55.422	C.2	1	RN65021	-0.008	
56	 C39	70.179	35.499	55.575	C.3	1	RN65021	-0.033	
57	 C40	72.382	35.050	54.306	C.2	1	RN65021	-0.029	
58	 C41	71.861	35.441	52.955	C.3	1	RN65021	-0.038	
59	   S	72.451	34.474	56.822	S.3	1	RN65021	-0.075	
60	   H	76.097	34.555	59.453	 H	1	RN65021	0.031	
61	   H	74.409	34.485	59.004	 H	1	RN65021	0.031	
62	   H	75.461	35.668	58.265	 H	1	RN65021	0.031	
63	   H	76.680	31.882	51.541	 H	1	RN65021	0.149	
64	   H	74.235	31.969	54.258	 H	1	RN65021	0.063	
65	   H	69.215	38.929	48.147	 H	1	RN65021	0.149	
66	   H	75.670	30.120	54.396	 H	1	RN65021	0.038	
67	   H	76.965	31.058	53.671	 H	1	RN65021	0.038	
68	   H	68.239	50.159	47.437	 H	1	RN65021	0.157	
69	   H	74.686	30.465	49.916	 H	1	RN65021	0.046	
70	   H	76.408	30.410	49.509	 H	1	RN65021	0.046	
71	   H	75.506	32.020	48.110	 H	1	RN65021	0.028	
72	   H	76.304	32.896	49.442	 H	1	RN65021	0.028	
73	   H	74.166	33.254	50.480	 H	1	RN65021	0.027	
74	   H	73.397	32.454	49.089	 H	1	RN65021	0.027	
75	   H	74.109	34.170	47.635	 H	1	RN65021	0.026	
76	   H	74.992	34.945	48.984	 H	1	RN65021	0.026	
77	   H	72.667	35.074	50.050	 H	1	RN65021	0.026	
78	   H	72.135	34.944	48.358	 H	1	RN65021	0.026	
79	   H	73.403	36.882	47.787	 H	1	RN65021	0.027	
80	   H	73.920	37.004	49.503	 H	1	RN65021	0.027	
81	   H	72.330	38.632	49.294	 H	1	RN65021	0.028	
82	   H	71.494	37.241	50.018	 H	1	RN65021	0.028	
83	   H	70.207	36.891	48.230	 H	1	RN65021	0.046	
84	   H	71.422	37.557	47.117	 H	1	RN65021	0.046	
85	   H	70.462	42.138	47.213	 H	1	RN65021	0.079	
86	   H	69.379	40.993	46.411	 H	1	RN65021	0.079	
87	   H	69.907	41.012	50.693	 H	1	RN65021	0.065	
88	   H	70.266	42.655	52.425	 H	1	RN65021	0.062	
89	   H	69.712	44.976	52.037	 H	1	RN65021	0.062	
90	   H	67.635	46.559	46.411	 H	1	RN65021	0.060	
91	   H	65.504	47.932	46.020	 H	1	RN65021	0.036	
92	   H	64.584	48.433	47.449	 H	1	RN65021	0.036	
93	   H	66.095	47.304	48.895	 H	1	RN65021	0.029	
94	   H	65.580	46.180	47.663	 H	1	RN65021	0.029	
95	   H	74.449	37.052	54.105	 H	1	RN65021	0.062	
96	   H	75.026	38.946	52.722	 H	1	RN65021	0.063	
97	   H	76.537	36.356	49.804	 H	1	RN65021	0.063	
98	   H	75.953	34.462	51.182	 H	1	RN65021	0.062	
99	   H	69.804	35.833	54.630	 H	1	RN65021	0.028	
100	   H	70.124	36.299	56.283	 H	1	RN65021	0.028	
101	   H	69.590	34.675	55.921	 H	1	RN65021	0.028	
102	   H	72.645	35.354	52.232	 H	1	RN65021	0.028	
103	   H	71.515	36.453	52.986	 H	1	RN65021	0.028	
104	   H	71.052	34.795	52.684	 H	1	RN65021	0.028	
@<TRIPOS>BOND
1 1 5 2
2 1 6 1
3 2 5 1
4 2 60 1
5 2 61 1
6 2 62 1
7 3 32 1
8 3 33 1
9 4 50 1
10 5 24 1
11 6 8 2
12 7 41 2
13 8 11 1
14 9 17 1
15 9 20 1
16 9 63 1
17 10 40 2
18 11 14 1
19 11 21 1
20 11 64 1
21 12 30 1
22 12 31 1
23 12 65 1
24 13 38 2
25 14 17 1
26 14 66 1
27 14 67 1
28 15 38 1
29 15 39 1
30 15 45 1
31 16 45 2
32 17 22 2
33 18 40 1
34 18 41 1
35 18 68 1
36 19 31 2
37 20 23 1
38 20 69 1
39 20 70 1
40 21 46 2
41 23 25 1
42 23 71 1
43 23 72 1
44 8 24 1
45 24 54 1
46 25 26 1
47 25 73 1
48 25 74 1
49 26 27 1
50 26 75 1
51 26 76 1
52 27 28 1
53 27 77 1
54 27 78 1
55 28 29 1
56 28 79 1
57 28 80 1
58 29 30 1
59 29 81 1
60 29 82 1
61 30 83 1
62 30 84 1
63 31 32 1
64 32 85 1
65 32 86 1
66 33 34 ar
67 33 44 ar
68 34 35 ar
69 34 87 1
70 35 36 ar
71 35 88 1
72 36 37 ar
73 36 89 1
74 37 38 1
75 37 44 ar
76 39 40 1
77 39 43 1
78 39 90 1
79 41 42 1
80 42 43 1
81 42 91 1
82 42 92 1
83 43 93 1
84 43 94 1
85 44 45 1
86 46 47 1
87 46 53 1
88 47 48 ar
89 47 52 ar
90 48 49 ar
91 48 95 1
92 49 50 ar
93 49 96 1
94 50 51 ar
95 51 52 ar
96 51 97 1
97 52 98 1
98 53 54 2
99 53 57 1
100 54 59 1
101 55 56 1
102 55 57 2
103 55 59 1
104 56 99 1
105 56 100 1
106 56 101 1
107 57 58 1
108 58 102 1
109 58 103 1
110 58 104 1
@<TRIPOS>SUBSTRUCTURE
1	RN65021	1	GROUP	1 ****	RN6502
