# created with PyMOL 2.5.5
@<TRIPOS>MOLECULE
6boy
59 65 1                 
SMALL
USER_CHARGES
@<TRIPOS>ATOM
1	   N	76.722	32.855	57.578	N.2	1	RN6502	0.000	
2	   C	75.401	34.671	58.648	C.3	1	RN6502	0.000	
3	   O	68.862	41.505	48.297	O.3	1	RN6502	0.000	
4	  CL	76.230	39.137	50.174	Cl	1	RN6502	0.000	
5	  C1	75.728	33.706	57.568	C.2	1	RN6502	0.000	
6	  N1	76.700	32.152	56.376	N.2	1	RN6502	0.000	
7	  O1	65.869	50.598	47.050	O.2	1	RN6502	0.000	
8	  C2	75.690	32.603	55.668	C.2	1	RN6502	0.000	
9	  N2	75.972	31.228	51.340	N.pl3	1	RN6502	0.000	
10	  O2	69.608	48.136	47.686	O.2	1	RN6502	0.000	
11	  C3	75.276	32.218	54.265	C.3	1	RN6502	0.000	
12	  N3	70.186	38.939	47.984	N.pl3	1	RN6502	0.000	
13	  O3	68.617	47.053	50.180	O.2	1	RN6502	0.000	
14	  C4	75.905	30.925	53.732	C.3	1	RN6502	0.000	
15	  N4	68.161	45.803	48.273	N.2	1	RN6502	0.000	
16	  O4	67.966	44.035	46.777	O.2	1	RN6502	0.000	
17	  C5	75.375	30.601	52.352	C.2	1	RN6502	0.000	
18	  N5	67.709	49.332	47.373	N.pl3	1	RN6502	0.000	
19	  O5	71.986	40.279	47.737	O.2	1	RN6502	0.000	
20	  C6	75.620	30.986	49.948	C.3	1	RN6502	0.000	
21	  N6	75.552	33.389	53.421	N.2	1	RN6502	0.000	
22	  O6	74.449	29.811	52.191	O.2	1	RN6502	0.000	
23	  C7	75.488	32.269	49.150	C.3	1	RN6502	0.000	
24	  N7	75.032	33.584	56.382	N.2	1	RN6502	0.000	
25	  C8	74.215	33.054	49.430	C.3	1	RN6502	0.000	
26	  C9	74.134	34.380	48.684	C.3	1	RN6502	0.000	
27	 C10	72.920	35.237	49.023	C.3	1	RN6502	0.000	
28	 C11	73.147	36.730	48.815	C.3	1	RN6502	0.000	
29	 C12	71.963	37.638	49.142	C.3	1	RN6502	0.000	
30	 C13	70.911	37.676	48.050	C.3	1	RN6502	0.000	
31	 C14	70.770	40.108	47.714	C.2	1	RN6502	0.000	
32	 C15	69.867	41.256	47.326	C.3	1	RN6502	0.000	
33	 C16	69.147	42.392	49.300	C.2	1	RN6502	0.000	
34	 C17	69.671	42.002	50.523	C.2	1	RN6502	0.000	
35	 C18	69.876	42.945	51.515	C.2	1	RN6502	0.000	
36	 C19	69.562	44.274	51.295	C.2	1	RN6502	0.000	
37	 C20	69.042	44.653	50.061	C.2	1	RN6502	0.000	
38	 C21	68.613	45.990	49.585	C.2	1	RN6502	0.000	
39	 C22	67.593	46.861	47.437	C.3	1	RN6502	0.000	
40	 C23	68.393	48.148	47.516	C.2	1	RN6502	0.000	
41	 C24	66.364	49.478	47.151	C.2	1	RN6502	0.000	
42	 C25	65.553	48.223	47.048	C.3	1	RN6502	0.000	
43	 C26	66.140	47.072	47.851	C.3	1	RN6502	0.000	
44	 C27	68.832	43.738	49.044	C.2	1	RN6502	0.000	
45	 C28	68.272	44.464	47.874	C.2	1	RN6502	0.000	
46	 C29	74.833	34.433	53.601	C.2	1	RN6502	0.000	
47	 C30	75.153	35.602	52.755	C.2	1	RN6502	0.000	
48	 C31	74.893	36.899	53.186	C.2	1	RN6502	0.000	
49	 C32	75.223	37.986	52.397	C.2	1	RN6502	0.000	
50	 C33	75.817	37.772	51.173	C.2	1	RN6502	0.000	
51	 C34	76.089	36.500	50.722	C.2	1	RN6502	0.000	
52	 C35	75.754	35.418	51.515	C.2	1	RN6502	0.000	
53	 C36	73.718	34.567	54.571	C.2	1	RN6502	0.000	
54	 C37	73.874	34.204	55.889	C.2	1	RN6502	0.000	
55	 C38	71.605	35.064	55.422	C.2	1	RN6502	0.000	
56	 C39	70.179	35.499	55.575	C.3	1	RN6502	0.000	
57	 C40	72.382	35.050	54.306	C.2	1	RN6502	0.000	
58	 C41	71.861	35.441	52.955	C.3	1	RN6502	0.000	
59	   S	72.451	34.474	56.822	S.2	1	RN6502	0.000	
@<TRIPOS>BOND
1 1 5 ar
2 1 6 ar
3 2 5 1
4 3 32 1
5 3 33 1
6 5 24 ar
7 6 8 ar
8 8 11 1
9 8 24 ar
10 11 14 1
11 11 21 1
12 14 17 1
13 9 17 1
14 17 22 2
15 9 20 1
16 20 23 1
17 23 25 1
18 25 26 1
19 26 27 1
20 27 28 1
21 28 29 1
22 29 30 1
23 12 30 1
24 12 31 1
25 19 31 2
26 31 32 1
27 33 34 ar
28 33 44 ar
29 34 35 ar
30 35 36 ar
31 36 37 ar
32 37 38 ar
33 37 44 ar
34 13 38 2
35 15 38 ar
36 15 39 1
37 39 40 1
38 39 43 1
39 10 40 2
40 18 40 1
41 7 41 2
42 18 41 1
43 41 42 1
44 42 43 1
45 44 45 ar
46 15 45 ar
47 16 45 2
48 21 46 2
49 46 47 1
50 46 53 1
51 47 48 ar
52 47 52 ar
53 48 49 ar
54 49 50 ar
55 4 50 1
56 50 51 ar
57 51 52 ar
58 53 54 ar
59 53 57 ar
60 24 54 1
61 54 59 ar
62 55 56 1
63 55 57 ar
64 55 59 ar
65 57 58 1
@<TRIPOS>SUBSTRUCTURE
1	RN6502	1	GROUP	1 B	RN6
