# created with PyMOL 2.5.5
@<TRIPOS>MOLECULE
6hay
126 132 1               
SMALL
USER_CHARGES
@<TRIPOS>ATOM
1	   N	-3.912	-14.501	-33.792	N.pl3	1	UNL1	-0.301	
2	   N	-5.438	-14.156	-30.631	N.pl3	1	UNL1	-0.286	
3	   N	-3.550	-12.726	-27.873	N.pl3	1	UNL1	-0.310	
4	   N	-5.690	-12.210	-19.312	N.2	1	UNL1	-0.252	
5	   N	-0.058	-20.374	-29.258	N.3	1	UNL1	0.239	
6	   N	1.576	-18.772	-30.971	N.pl3	1	UNL1	-0.317	
7	   N	4.118	-16.932	-33.726	N.2	1	UNL1	-0.147	
8	   N	2.861	-16.475	-33.530	N.2	1	UNL1	-0.132	
9	   N	0.835	-16.504	-32.502	N.4	1	UNL1	-0.340	
10	   C	-4.585	-15.212	-32.721	C.3	1	UNL1	0.105	
11	   C	-4.083	-16.686	-32.604	C.3	1	UNL1	-0.011	
12	   C	-4.386	-14.373	-31.453	C.2	1	UNL1	0.237	
13	   C	-4.624	-17.379	-31.347	C.3	1	UNL1	-0.058	
14	   C	-2.552	-16.755	-32.579	C.3	1	UNL1	-0.058	
15	   C	-4.577	-17.461	-33.827	C.3	1	UNL1	-0.058	
16	   C	-5.279	-13.252	-29.482	C.3	1	UNL1	0.105	
17	   C	-6.657	-13.297	-28.795	C.3	1	UNL1	0.002	
18	   C	-7.616	-13.689	-29.913	C.3	1	UNL1	0.073	
19	   C	-6.807	-14.679	-30.733	C.3	1	UNL1	0.042	
20	   C	-4.185	-13.700	-28.522	C.2	1	UNL1	0.234	
21	   C	-2.690	-12.999	-26.731	C.3	1	UNL1	0.040	
22	   C	-3.406	-12.937	-25.404	C.2	1	UNL1	0.011	
23	   C	-2.827	-13.519	-24.271	C.2	1	UNL1	0.126	
24	   C	-3.442	-13.437	-23.030	C.2	1	UNL1	-0.011	
25	   C	-4.627	-12.723	-22.886	C.2	1	UNL1	-0.006	
26	   C	-5.222	-12.163	-24.011	C.2	1	UNL1	-0.053	
27	   C	-4.613	-12.258	-25.247	C.2	1	UNL1	-0.053	
28	   C	-5.270	-12.625	-21.559	C.2	1	UNL1	0.042	
29	   C	-4.770	-12.217	-20.346	C.2	1	UNL1	0.053	
30	   C	-6.840	-12.606	-19.733	C.2	1	UNL1	0.065	
31	   C	-3.378	-11.753	-20.059	C.3	1	UNL1	-0.021	
32	   C	-4.393	-14.026	-34.943	C.2	1	UNL1	0.251	
33	   C	-3.324	-13.393	-35.880	C.3	1	UNL1	0.187	
34	   C	-3.285	-13.777	-37.303	C.3	1	UNL1	-0.007	
35	   C	-3.615	-12.365	-36.903	C.3	1	UNL1	-0.007	
36	   C	-1.023	-14.936	-23.470	C.3	1	UNL1	0.113	
37	   C	-2.521	-17.876	-25.089	C.3	1	UNL1	0.071	
38	   C	-2.622	-17.896	-26.580	C.3	1	UNL1	0.071	
39	   C	-1.021	-16.315	-24.045	C.3	1	UNL1	0.082	
40	   C	-1.276	-19.773	-27.139	C.3	1	UNL1	0.088	
41	   C	-1.181	-20.676	-28.352	C.3	1	UNL1	-0.008	
42	   C	0.878	-19.374	-28.707	C.3	1	UNL1	-0.016	
43	   C	2.055	-19.173	-29.646	C.3	1	UNL1	0.053	
44	   C	0.611	-19.724	-31.524	C.3	1	UNL1	0.053	
45	   C	-0.548	-19.912	-30.564	C.3	1	UNL1	-0.016	
46	   C	2.484	-18.165	-31.876	C.2	1	UNL1	0.074	
47	   C	3.769	-18.652	-32.110	C.2	1	UNL1	-0.009	
48	   C	4.568	-17.999	-33.049	C.2	1	UNL1	0.099	
49	   C	2.035	-17.072	-32.659	C.2	1	UNL1	0.160	
50	   C	5.972	-18.414	-33.325	C.2	1	UNL1	0.044	
51	   C	6.767	-17.755	-34.280	C.2	1	UNL1	0.126	
52	   C	8.073	-18.187	-34.540	C.2	1	UNL1	-0.020	
53	   C	8.584	-19.290	-33.877	C.2	1	UNL1	-0.058	
54	   C	7.812	-19.951	-32.937	C.2	1	UNL1	-0.061	
55	   C	6.521	-19.516	-32.660	C.2	1	UNL1	-0.049	
56	   O	-3.316	-13.808	-31.280	O.2	1	UNL1	-0.273	
57	   O	-7.942	-12.538	-30.698	O.3	1	UNL1	-0.390	
58	   O	-3.950	-14.895	-28.350	O.2	1	UNL1	-0.274	
59	   O	-5.568	-14.090	-35.271	O.2	1	UNL1	-0.272	
60	   O	-1.629	-14.146	-24.498	O.3	1	UNL1	-0.489	
61	   O	-2.284	-16.545	-24.670	O.3	1	UNL1	-0.374	
62	   O	-2.584	-19.228	-27.066	O.3	1	UNL1	-0.372	
63	   O	6.312	-16.708	-35.010	O.3	1	UNL1	-0.506	
64	   F	-2.051	-13.274	-35.268	 F	1	UNL1	-0.232	
65	 H01	-7.704	-12.678	-19.073	 H	1	UNL1	0.000	
66	 H02	4.141	-19.523	-31.571	 H	1	UNL1	0.000	
67	 H03	0.162	-17.208	-32.236	 H	1	UNL1	0.000	
68	 H04	0.887	-15.799	-31.780	 H	1	UNL1	0.000	
69	 H05	0.548	-16.076	-33.371	 H	1	UNL1	0.000	
70	   S	-6.929	-13.015	-21.400	S.3	1	UNL1	-0.075	
71	   H	-2.951	-14.345	-33.647	 H	1	UNL1	0.150	
72	   H	-5.633	-15.319	-32.909	 H	1	UNL1	0.060	
73	   H	-4.290	-16.852	-30.478	 H	1	UNL1	0.024	
74	   H	-4.266	-18.387	-31.313	 H	1	UNL1	0.024	
75	   H	-5.694	-17.381	-31.373	 H	1	UNL1	0.024	
76	   H	-2.185	-16.218	-31.729	 H	1	UNL1	0.024	
77	   H	-2.161	-16.318	-33.474	 H	1	UNL1	0.024	
78	   H	-2.242	-17.777	-32.516	 H	1	UNL1	0.024	
79	   H	-5.646	-17.426	-33.864	 H	1	UNL1	0.024	
80	   H	-4.256	-18.479	-33.757	 H	1	UNL1	0.024	
81	   H	-4.175	-17.020	-34.715	 H	1	UNL1	0.024	
82	   H	-4.982	-12.271	-29.790	 H	1	UNL1	0.060	
83	   H	-6.913	-12.339	-28.393	 H	1	UNL1	0.031	
84	   H	-6.684	-13.980	-27.972	 H	1	UNL1	0.031	
85	   H	-8.541	-14.095	-29.561	 H	1	UNL1	0.061	
86	   H	-6.873	-15.664	-30.321	 H	1	UNL1	0.049	
87	   H	-7.149	-14.767	-31.743	 H	1	UNL1	0.049	
88	   H	-7.127	-12.137	-31.038	 H	1	UNL1	0.210	
89	   H	-3.665	-11.796	-28.174	 H	1	UNL1	0.149	
90	   H	-1.900	-12.277	-26.723	 H	1	UNL1	0.051	
91	   H	-2.328	-13.999	-26.844	 H	1	UNL1	0.051	
92	   H	-3.020	-13.906	-22.213	 H	1	UNL1	0.066	
93	   H	-6.126	-11.673	-23.922	 H	1	UNL1	0.062	
94	   H	-5.059	-11.819	-26.068	 H	1	UNL1	0.062	
95	   H	-2.790	-11.817	-20.951	 H	1	UNL1	0.029	
96	   H	-2.945	-12.372	-19.301	 H	1	UNL1	0.029	
97	   H	-3.403	-10.738	-19.720	 H	1	UNL1	0.029	
98	   H	-4.045	-14.411	-37.708	 H	1	UNL1	0.030	
99	   H	-2.563	-14.235	-37.946	 H	1	UNL1	0.030	
100	   H	-2.915	-11.577	-37.087	 H	1	UNL1	0.030	
101	   H	-4.422	-11.689	-37.094	 H	1	UNL1	0.030	
102	   H	-1.599	-14.898	-22.569	 H	1	UNL1	0.072	
103	   H	-0.045	-14.594	-23.204	 H	1	UNL1	0.072	
104	   H	-3.435	-18.231	-24.661	 H	1	UNL1	0.058	
105	   H	-1.719	-18.508	-24.768	 H	1	UNL1	0.058	
106	   H	-1.803	-17.347	-26.995	 H	1	UNL1	0.058	
107	   H	-3.551	-17.450	-26.868	 H	1	UNL1	0.058	
108	   H	-0.868	-17.031	-23.265	 H	1	UNL1	0.059	
109	   H	-0.233	-16.413	-24.762	 H	1	UNL1	0.059	
110	   H	-1.074	-20.340	-26.254	 H	1	UNL1	0.061	
111	   H	-0.560	-18.982	-27.222	 H	1	UNL1	0.061	
112	   H	-2.091	-20.585	-28.907	 H	1	UNL1	0.084	
113	   H	-1.012	-21.665	-27.980	 H	1	UNL1	0.084	
114	   H	1.238	-19.714	-27.758	 H	1	UNL1	0.083	
115	   H	0.363	-18.443	-28.594	 H	1	UNL1	0.083	
116	   H	2.602	-20.089	-29.729	 H	1	UNL1	0.052	
117	   H	2.689	-18.405	-29.255	 H	1	UNL1	0.052	
118	   H	1.094	-20.665	-31.683	 H	1	UNL1	0.052	
119	   H	0.238	-19.344	-32.452	 H	1	UNL1	0.052	
120	   H	-1.059	-18.980	-30.440	 H	1	UNL1	0.083	
121	   H	-1.217	-20.645	-30.964	 H	1	UNL1	0.083	
122	   H	8.656	-17.683	-35.227	 H	1	UNL1	0.065	
123	   H	9.540	-19.619	-34.083	 H	1	UNL1	0.062	
124	   H	8.196	-20.770	-32.440	 H	1	UNL1	0.062	
125	   H	5.958	-20.014	-31.952	 H	1	UNL1	0.062	
126	   H	5.444	-16.383	-34.872	 H	1	UNL1	0.292	
@<TRIPOS>BOND
1 1 10 1
2 1 32 1
3 1 71 1
4 2 16 1
5 2 19 1
6 3 21 1
7 3 89 1
8 4 30 2
9 5 42 1
10 5 45 1
11 6 44 1
12 6 46 1
13 7 8 2
14 8 49 1
15 9 67 1
16 9 68 1
17 9 69 1
18 10 11 1
19 10 12 1
20 10 72 1
21 11 13 1
22 11 14 1
23 11 15 1
24 2 12 1
25 12 56 2
26 13 73 1
27 13 74 1
28 13 75 1
29 14 76 1
30 14 77 1
31 14 78 1
32 15 79 1
33 15 80 1
34 15 81 1
35 16 17 1
36 16 20 1
37 16 82 1
38 17 18 1
39 17 83 1
40 17 84 1
41 18 19 1
42 18 57 1
43 18 85 1
44 19 86 1
45 19 87 1
46 3 20 1
47 20 58 2
48 21 22 1
49 21 90 1
50 21 91 1
51 22 23 ar
52 22 27 ar
53 23 24 ar
54 23 60 1
55 24 25 ar
56 24 92 1
57 25 26 ar
58 25 28 1
59 26 27 ar
60 26 93 1
61 27 94 1
62 28 29 2
63 28 70 1
64 4 29 1
65 29 31 1
66 30 65 1
67 30 70 1
68 31 95 1
69 31 96 1
70 31 97 1
71 32 33 1
72 32 59 2
73 33 34 1
74 33 35 1
75 33 64 1
76 34 35 1
77 34 98 1
78 34 99 1
79 35 100 1
80 35 101 1
81 36 39 1
82 36 102 1
83 36 103 1
84 37 38 1
85 37 104 1
86 37 105 1
87 38 62 1
88 38 106 1
89 38 107 1
90 39 108 1
91 39 109 1
92 40 41 1
93 40 110 1
94 40 111 1
95 5 41 1
96 41 112 1
97 41 113 1
98 42 43 1
99 42 114 1
100 42 115 1
101 6 43 1
102 43 116 1
103 43 117 1
104 44 45 1
105 44 118 1
106 44 119 1
107 45 120 1
108 45 121 1
109 46 47 1
110 46 49 2
111 47 48 2
112 47 66 1
113 7 48 1
114 48 50 1
115 9 49 1
116 50 51 ar
117 50 55 ar
118 51 52 ar
119 51 63 1
120 52 53 ar
121 52 122 1
122 53 54 ar
123 53 123 1
124 54 55 ar
125 54 124 1
126 55 125 1
127 57 88 1
128 36 60 1
129 37 61 1
130 39 61 1
131 40 62 1
132 63 126 1
@<TRIPOS>SUBSTRUCTURE
1	UNL1	1	GROUP	1 ****	UNL
