@<TRIPOS>MOLECULE
LIG
  126   132     1     0     0
SMALL
bcc


@<TRIPOS>ATOM
      1 N           -3.9120   -14.5010   -33.7920 ns         1 LIG      -0.553900
      2 N1          -5.4380   -14.1560   -30.6310 n          1 LIG      -0.445800
      3 N2          -3.5500   -12.7260   -27.8730 ns         1 LIG      -0.540900
      4 N3          -5.6900   -12.2100   -19.3120 nc         1 LIG      -0.623000
      5 N4          -0.0580   -20.3740   -29.2580 n3         1 LIG      -0.729600
      6 N5           1.5760   -18.7720   -30.9710 nh         1 LIG      -0.668000
      7 N6           4.1180   -16.9320   -33.7260 nb         1 LIG      -0.323000
      8 N7           2.8610   -16.4750   -33.5300 nb         1 LIG      -0.243000
      9 N8           0.8350   -16.5040   -32.5020 nz         1 LIG      -0.787300
     10 C           -4.5850   -15.2120   -32.7210 c3         1 LIG       0.058700
     11 C1          -4.0830   -16.6860   -32.6040 c3         1 LIG      -0.051000
     12 C2          -4.3860   -14.3730   -31.4530 c          1 LIG       0.684100
     13 C3          -4.6240   -17.3790   -31.3470 c3         1 LIG      -0.102100
     14 C4          -2.5520   -16.7550   -32.5790 c3         1 LIG      -0.102100
     15 C5          -4.5770   -17.4610   -33.8270 c3         1 LIG      -0.102100
     16 C6          -5.2790   -13.2520   -29.4820 c5         1 LIG       0.036700
     17 C7          -6.6570   -13.2970   -28.7950 c5         1 LIG      -0.135400
     18 C8          -7.6160   -13.6890   -29.9130 c5         1 LIG       0.141100
     19 C9          -6.8070   -14.6790   -30.7330 c5         1 LIG       0.033000
     20 C10         -4.1850   -13.7000   -28.5220 c          1 LIG       0.664100
     21 C11         -2.6900   -12.9990   -26.7310 c3         1 LIG       0.135300
     22 C12         -3.4060   -12.9370   -25.4040 ca         1 LIG      -0.165300
     23 C13         -2.8270   -13.5190   -24.2710 ca         1 LIG       0.153100
     24 C14         -3.4420   -13.4370   -23.0300 ca         1 LIG      -0.192000
     25 C15         -4.6270   -12.7230   -22.8860 ca         1 LIG       0.061000
     26 C16         -5.2220   -12.1630   -24.0110 ca         1 LIG      -0.155000
     27 C17         -4.6130   -12.2580   -25.2470 ca         1 LIG      -0.092000
     28 C18         -5.2700   -12.6250   -21.5590 cd         1 LIG      -0.183400
     29 C19         -4.7700   -12.2170   -20.3460 cc         1 LIG       0.376600
     30 C20         -6.8400   -12.6060   -19.7330 cd         1 LIG       0.385300
     31 C21         -3.3780   -11.7530   -20.0590 c3         1 LIG      -0.133400
     32 C22         -4.3930   -14.0260   -34.9430 c          1 LIG       0.683100
     33 C23         -3.3240   -13.3930   -35.8800 cx         1 LIG       0.009300
     34 C24         -3.2850   -13.7770   -37.3030 cx         1 LIG      -0.106400
     35 C25         -3.6150   -12.3650   -36.9030 cx         1 LIG      -0.106400
     36 C26         -1.0230   -14.9360   -23.4700 c3         1 LIG       0.125400
     37 C27         -2.5210   -17.8760   -25.0890 c3         1 LIG       0.097400
     38 C28         -2.6220   -17.8960   -26.5800 c3         1 LIG       0.093400
     39 C29         -1.0210   -16.3150   -24.0450 c3         1 LIG       0.121400
     40 C30         -1.2760   -19.7730   -27.1390 c3         1 LIG       0.087400
     41 C31         -1.1810   -20.6760   -28.3520 c3         1 LIG       0.161800
     42 C32          0.8780   -19.3740   -28.7070 c6         1 LIG       0.167300
     43 C33          2.0550   -19.1730   -29.6460 c6         1 LIG       0.175300
     44 C34          0.6110   -19.7240   -31.5240 c6         1 LIG       0.175300
     45 C35         -0.5480   -19.9120   -30.5640 c6         1 LIG       0.167300
     46 C36          2.4840   -18.1650   -31.8760 ca         1 LIG       0.117300
     47 C37          3.7690   -18.6520   -32.1100 ca         1 LIG      -0.246300
     48 C38          4.5680   -17.9990   -33.0490 cp         1 LIG       0.498800
     49 C39          2.0350   -17.0720   -32.6590 ca         1 LIG       0.323200
     50 C40          5.9720   -18.4140   -33.3250 cp         1 LIG      -0.281500
     51 C41          6.7670   -17.7550   -34.2800 ca         1 LIG       0.202100
     52 C42          8.0730   -18.1870   -34.5400 ca         1 LIG      -0.163000
     53 C43          8.5840   -19.2900   -33.8770 ca         1 LIG      -0.056000
     54 C44          7.8120   -19.9510   -32.9370 ca         1 LIG      -0.163000
     55 C45          6.5210   -19.5160   -32.6600 ca         1 LIG      -0.073000
     56 O           -3.3160   -13.8080   -31.2800 o          1 LIG      -0.711100
     57 O1          -7.9420   -12.5380   -30.6980 oh         1 LIG      -0.573800
     58 O2          -3.9500   -14.8950   -28.3500 o          1 LIG      -0.687100
     59 O3          -5.5680   -14.0900   -35.2710 o          1 LIG      -0.612100
     60 O4          -1.6290   -14.1460   -24.4980 os         1 LIG      -0.338900
     61 O5          -2.2840   -16.5450   -24.6700 os         1 LIG      -0.410600
     62 O6          -2.5840   -19.2280   -27.0660 os         1 LIG      -0.427600
     63 O7           6.3120   -16.7080   -35.0100 oh         1 LIG      -0.482100
     64 F           -2.0510   -13.2740   -35.2680 f          1 LIG      -0.199300
     65 H01         -7.7040   -12.6780   -19.0730 h5         1 LIG       0.064100
     66 H02          4.1410   -19.5230   -31.5710 ha         1 LIG       0.182000
     67 H03          0.1620   -17.2080   -32.2360 hn         1 LIG       0.481467
     68 H04          0.8870   -15.7990   -31.7800 hn         1 LIG       0.481467
     69 H05          0.5480   -16.0760   -33.3710 hn         1 LIG       0.481467
     70 S           -6.9290   -13.0150   -21.4000 ss         1 LIG      -0.077300
     71 H           -2.9510   -14.3450   -33.6470 hn         1 LIG       0.334500
     72 H1          -5.6330   -15.3190   -32.9090 h1         1 LIG       0.102700
     73 H2          -4.2900   -16.8520   -30.4780 hc         1 LIG       0.046811
     74 H3          -4.2660   -18.3870   -31.3130 hc         1 LIG       0.046811
     75 H4          -5.6940   -17.3810   -31.3730 hc         1 LIG       0.046811
     76 H5          -2.1850   -16.2180   -31.7290 hc         1 LIG       0.046811
     77 H6          -2.1610   -16.3180   -33.4740 hc         1 LIG       0.046811
     78 H7          -2.2420   -17.7770   -32.5160 hc         1 LIG       0.046811
     79 H8          -5.6460   -17.4260   -33.8640 hc         1 LIG       0.046811
     80 H9          -4.2560   -18.4790   -33.7570 hc         1 LIG       0.046811
     81 H10         -4.1750   -17.0200   -34.7150 hc         1 LIG       0.046811
     82 H11         -4.9820   -12.2710   -29.7900 h1         1 LIG       0.086700
     83 H12         -6.9130   -12.3390   -28.3930 hc         1 LIG       0.078200
     84 H13         -6.6840   -13.9800   -27.9720 hc         1 LIG       0.078200
     85 H14         -8.5410   -14.0950   -29.5610 h1         1 LIG       0.104700
     86 H15         -6.8730   -15.6640   -30.3210 h1         1 LIG       0.085700
     87 H16         -7.1490   -14.7670   -31.7430 h1         1 LIG       0.085700
     88 H17         -7.1270   -12.1370   -31.0380 ho         1 LIG       0.410000
     89 H18         -3.6650   -11.7960   -28.1740 hn         1 LIG       0.316500
     90 H19         -1.9000   -12.2770   -26.7230 h1         1 LIG       0.073200
     91 H20         -2.3280   -13.9990   -26.8440 h1         1 LIG       0.073200
     92 H21         -3.0200   -13.9060   -22.2130 ha         1 LIG       0.153000
     93 H22         -6.1260   -11.6730   -23.9220 ha         1 LIG       0.149000
     94 H23         -5.0590   -11.8190   -26.0680 ha         1 LIG       0.136000
     95 H24         -2.7900   -11.8170   -20.9510 hc         1 LIG       0.057367
     96 H25         -2.9450   -12.3720   -19.3010 hc         1 LIG       0.057367
     97 H26         -3.4030   -10.7380   -19.7200 hc         1 LIG       0.057367
     98 H27         -4.0450   -14.4110   -37.7080 hc         1 LIG       0.099950
     99 H28         -2.5630   -14.2350   -37.9460 hc         1 LIG       0.099950
    100 H29         -2.9150   -11.5770   -37.0870 hc         1 LIG       0.099950
    101 H30         -4.4220   -11.6890   -37.0940 hc         1 LIG       0.099950
    102 H31         -1.5990   -14.8980   -22.5690 h1         1 LIG       0.062700
    103 H32         -0.0450   -14.5940   -23.2040 h1         1 LIG       0.062700
    104 H33         -3.4350   -18.2310   -24.6610 h1         1 LIG       0.060700
    105 H34         -1.7190   -18.5080   -24.7680 h1         1 LIG       0.060700
    106 H35         -1.8030   -17.3470   -26.9950 h1         1 LIG       0.056200
    107 H36         -3.5510   -17.4500   -26.8680 h1         1 LIG       0.056200
    108 H37         -0.8680   -17.0310   -23.2650 h1         1 LIG       0.045700
    109 H38         -0.2330   -16.4130   -24.7620 h1         1 LIG       0.045700
    110 H39         -1.0740   -20.3400   -26.2540 h1         1 LIG       0.046200
    111 H40         -0.5600   -18.9820   -27.2220 h1         1 LIG       0.046200
    112 H41         -2.0910   -20.5850   -28.9070 h1         1 LIG       0.071200
    113 H42         -1.0120   -21.6650   -27.9800 h1         1 LIG       0.071200
    114 H43          1.2380   -19.7140   -27.7580 h1         1 LIG       0.053450
    115 H44          0.3630   -18.4430   -28.5940 h1         1 LIG       0.053450
    116 H45          2.6020   -20.0890   -29.7290 h1         1 LIG       0.053200
    117 H46          2.6890   -18.4050   -29.2550 h1         1 LIG       0.053200
    118 H47          1.0940   -20.6650   -31.6830 h1         1 LIG       0.053200
    119 H48          0.2380   -19.3440   -32.4520 h1         1 LIG       0.053200
    120 H49         -1.0590   -18.9800   -30.4400 h1         1 LIG       0.053450
    121 H50         -1.2170   -20.6450   -30.9640 h1         1 LIG       0.053450
    122 H51          8.6560   -17.6830   -35.2270 ha         1 LIG       0.169000
    123 H52          9.5400   -19.6190   -34.0830 ha         1 LIG       0.153000
    124 H53          8.1960   -20.7700   -32.4400 ha         1 LIG       0.150000
    125 H54          5.9580   -20.0140   -31.9520 ha         1 LIG       0.130000
    126 H55          5.4440   -16.3830   -34.8720 ho         1 LIG       0.442000
@<TRIPOS>BOND
     1     1    10 1   
     2     1    32 1   
     3     1    71 1   
     4     2    16 1   
     5     2    19 1   
     6     3    21 1   
     7     3    89 1   
     8     4    30 2   
     9     5    42 1   
    10     5    45 1   
    11     6    44 1   
    12     6    46 1   
    13     7     8 ar  
    14     8    49 ar  
    15     9    67 1   
    16     9    68 1   
    17     9    69 1   
    18    10    11 1   
    19    10    12 1   
    20    10    72 1   
    21    11    13 1   
    22    11    14 1   
    23    11    15 1   
    24     2    12 1   
    25    12    56 2   
    26    13    73 1   
    27    13    74 1   
    28    13    75 1   
    29    14    76 1   
    30    14    77 1   
    31    14    78 1   
    32    15    79 1   
    33    15    80 1   
    34    15    81 1   
    35    16    17 1   
    36    16    20 1   
    37    16    82 1   
    38    17    18 1   
    39    17    83 1   
    40    17    84 1   
    41    18    19 1   
    42    18    57 1   
    43    18    85 1   
    44    19    86 1   
    45    19    87 1   
    46     3    20 1   
    47    20    58 2   
    48    21    22 1   
    49    21    90 1   
    50    21    91 1   
    51    22    23 ar  
    52    22    27 ar  
    53    23    24 ar  
    54    23    60 1   
    55    24    25 ar  
    56    24    92 1   
    57    25    26 ar  
    58    25    28 1   
    59    26    27 ar  
    60    26    93 1   
    61    27    94 1   
    62    28    29 2   
    63    28    70 1   
    64     4    29 1   
    65    29    31 1   
    66    30    65 1   
    67    30    70 1   
    68    31    95 1   
    69    31    96 1   
    70    31    97 1   
    71    32    33 1   
    72    32    59 2   
    73    33    34 1   
    74    33    35 1   
    75    33    64 1   
    76    34    35 1   
    77    34    98 1   
    78    34    99 1   
    79    35   100 1   
    80    35   101 1   
    81    36    39 1   
    82    36   102 1   
    83    36   103 1   
    84    37    38 1   
    85    37   104 1   
    86    37   105 1   
    87    38    62 1   
    88    38   106 1   
    89    38   107 1   
    90    39   108 1   
    91    39   109 1   
    92    40    41 1   
    93    40   110 1   
    94    40   111 1   
    95     5    41 1   
    96    41   112 1   
    97    41   113 1   
    98    42    43 1   
    99    42   114 1   
   100    42   115 1   
   101     6    43 1   
   102    43   116 1   
   103    43   117 1   
   104    44    45 1   
   105    44   118 1   
   106    44   119 1   
   107    45   120 1   
   108    45   121 1   
   109    46    47 ar  
   110    46    49 ar  
   111    47    48 ar  
   112    47    66 1   
   113     7    48 ar  
   114    48    50 1   
   115     9    49 1   
   116    50    51 ar  
   117    50    55 ar  
   118    51    52 ar  
   119    51    63 1   
   120    52    53 ar  
   121    52   122 1   
   122    53    54 ar  
   123    53   123 1   
   124    54    55 ar  
   125    54   124 1   
   126    55   125 1   
   127    57    88 1   
   128    36    60 1   
   129    37    61 1   
   130    39    61 1   
   131    40    62 1   
   132    63   126 1   
@<TRIPOS>SUBSTRUCTURE
     1 LIG         1 TEMP              0 ****  ****    0 ROOT
