# created with PyMOL 2.5.5
@<TRIPOS>MOLECULE
6hay
65 71 1                 
SMALL
USER_CHARGES
@<TRIPOS>ATOM
1	  N1	-3.912	-14.501	-33.792	N.pl3	1	FX8301	0.000	
2	  C2	-4.585	-15.212	-32.721	C.3	1	FX8301	0.000	
3	  C3	-4.083	-16.686	-32.604	C.3	1	FX8301	0.000	
4	  C4	-4.386	-14.373	-31.453	C.2	1	FX8301	0.000	
5	  C5	-4.624	-17.379	-31.347	C.3	1	FX8301	0.000	
6	  C6	-2.552	-16.755	-32.579	C.3	1	FX8301	0.000	
7	  C7	-4.577	-17.461	-33.827	C.3	1	FX8301	0.000	
8	  N8	-5.438	-14.156	-30.631	N.pl3	1	FX8301	0.000	
9	  O9	-3.316	-13.808	-31.280	O.2	1	FX8301	0.000	
10	 C10	-5.279	-13.252	-29.482	C.3	1	FX8301	0.000	
11	 C11	-6.657	-13.297	-28.795	C.3	1	FX8301	0.000	
12	 C12	-7.616	-13.689	-29.913	C.3	1	FX8301	0.000	
13	 C13	-6.807	-14.679	-30.733	C.3	1	FX8301	0.000	
14	 O14	-7.942	-12.538	-30.698	O.3	1	FX8301	0.000	
15	 C15	-4.185	-13.700	-28.522	C.2	1	FX8301	0.000	
16	 O16	-3.950	-14.895	-28.350	O.2	1	FX8301	0.000	
17	 N17	-3.550	-12.726	-27.873	N.pl3	1	FX8301	0.000	
18	 C18	-2.690	-12.999	-26.731	C.3	1	FX8301	0.000	
19	 C19	-3.406	-12.937	-25.404	C.2	1	FX8301	0.000	
20	 C20	-2.827	-13.519	-24.271	C.2	1	FX8301	0.000	
21	 C21	-3.442	-13.437	-23.030	C.2	1	FX8301	0.000	
22	 C22	-4.627	-12.723	-22.886	C.2	1	FX8301	0.000	
23	 C23	-5.222	-12.163	-24.011	C.2	1	FX8301	0.000	
24	 C24	-4.613	-12.258	-25.247	C.2	1	FX8301	0.000	
25	 C25	-5.270	-12.625	-21.559	C.2	1	FX8301	0.000	
26	 C26	-4.770	-12.217	-20.346	C.2	1	FX8301	0.000	
27	 N27	-5.690	-12.210	-19.312	N.2	1	FX8301	0.000	
28	 C28	-6.840	-12.606	-19.733	C.2	1	FX8301	0.000	
29	 S29	-6.929	-13.015	-21.400	S.2	1	FX8301	0.000	
30	 C30	-3.378	-11.753	-20.059	C.3	1	FX8301	0.000	
31	 C31	-4.393	-14.026	-34.943	C.2	1	FX8301	0.000	
32	 C32	-3.324	-13.393	-35.880	C.3	1	FX8301	0.000	
33	 O33	-5.568	-14.090	-35.271	O.2	1	FX8301	0.000	
34	 C35	-3.285	-13.777	-37.303	C.3	1	FX8301	0.000	
35	 C36	-3.615	-12.365	-36.903	C.3	1	FX8301	0.000	
36	 O37	-1.629	-14.146	-24.498	O.3	1	FX8301	0.000	
37	 C38	-1.023	-14.936	-23.470	C.3	1	FX8301	0.000	
38	 O39	-2.284	-16.545	-24.670	O.3	1	FX8301	0.000	
39	 C40	-2.521	-17.876	-25.089	C.3	1	FX8301	0.000	
40	 C41	-2.622	-17.896	-26.580	C.3	1	FX8301	0.000	
41	 O42	-2.584	-19.228	-27.066	O.3	1	FX8301	0.000	
42	 C43	-1.021	-16.315	-24.045	C.3	1	FX8301	0.000	
43	 C44	-1.276	-19.773	-27.139	C.3	1	FX8301	0.000	
44	 C45	-1.181	-20.676	-28.352	C.3	1	FX8301	0.000	
45	 N46	-0.058	-20.374	-29.258	N.3	1	FX8301	0.000	
46	 C47	0.878	-19.374	-28.707	C.3	1	FX8301	0.000	
47	 C48	2.055	-19.173	-29.646	C.3	1	FX8301	0.000	
48	 N49	1.576	-18.772	-30.971	N.pl3	1	FX8301	0.000	
49	 C50	0.611	-19.724	-31.524	C.3	1	FX8301	0.000	
50	 C51	-0.548	-19.912	-30.564	C.3	1	FX8301	0.000	
51	 C52	2.484	-18.165	-31.876	C.2	1	FX8301	0.000	
52	 C53	3.769	-18.652	-32.110	C.2	1	FX8301	0.000	
53	 C54	4.568	-17.999	-33.049	C.2	1	FX8301	0.000	
54	 N55	4.118	-16.932	-33.726	N.2	1	FX8301	0.000	
55	 N56	2.861	-16.475	-33.530	N.2	1	FX8301	0.000	
56	 C57	2.035	-17.072	-32.659	C.2	1	FX8301	0.000	
57	 N58	0.835	-16.504	-32.502	N.pl3	1	FX8301	0.000	
58	 C59	5.972	-18.414	-33.325	C.2	1	FX8301	0.000	
59	 C60	6.767	-17.755	-34.280	C.2	1	FX8301	0.000	
60	 C61	8.073	-18.187	-34.540	C.2	1	FX8301	0.000	
61	 C62	8.584	-19.290	-33.877	C.2	1	FX8301	0.000	
62	 C63	7.812	-19.951	-32.937	C.2	1	FX8301	0.000	
63	 C64	6.521	-19.516	-32.660	C.2	1	FX8301	0.000	
64	 O65	6.312	-16.708	-35.010	O.3	1	FX8301	0.000	
65	 F34	-2.051	-13.274	-35.268	 F	1	FX8301	0.000	
@<TRIPOS>BOND
1 1 2 1
2 1 31 1
3 2 3 1
4 2 4 1
5 4 8 1
6 4 9 2
7 3 5 1
8 3 6 1
9 3 7 1
10 8 10 1
11 10 11 1
12 10 15 1
13 11 12 1
14 12 14 1
15 8 13 1
16 12 13 1
17 15 16 2
18 15 17 1
19 17 18 1
20 18 19 1
21 19 20 ar
22 20 21 ar
23 20 36 1
24 21 22 ar
25 22 23 ar
26 22 25 1
27 19 24 ar
28 23 24 ar
29 25 29 ar
30 25 26 ar
31 26 27 ar
32 26 30 1
33 27 28 ar
34 28 29 ar
35 31 32 1
36 31 33 2
37 32 34 1
38 32 35 1
39 32 65 1
40 34 35 1
41 36 37 1
42 37 42 1
43 38 39 1
44 38 42 1
45 39 40 1
46 40 41 1
47 41 43 1
48 43 44 1
49 44 45 1
50 45 46 1
51 45 50 1
52 46 47 1
53 47 48 1
54 48 49 1
55 48 51 1
56 49 50 1
57 51 52 ar
58 51 56 ar
59 52 53 ar
60 53 54 ar
61 53 58 1
62 54 55 ar
63 55 56 ar
64 56 57 1
65 58 59 ar
66 58 63 ar
67 59 60 ar
68 59 64 1
69 60 61 ar
70 61 62 ar
71 62 63 ar
@<TRIPOS>SUBSTRUCTURE
1	FX8301	1	GROUP	1 F	FX8
