@<TRIPOS>MOLECULE
6hay
 126 132 0 0 0
SMALL
USER_CHARGES

@<TRIPOS>ATOM
      1 N          -3.9120  -14.5010  -33.7920 N.am    1  UNL1       -0.3009
      2 C          -4.5850  -15.2120  -32.7210 C.3     1  UNL1        0.1045
      3 C          -4.0830  -16.6860  -32.6040 C.3     1  UNL1       -0.0108
      4 C          -4.3860  -14.3730  -31.4530 C.2     1  UNL1        0.2371
      5 C          -4.6240  -17.3790  -31.3470 C.3     1  UNL1       -0.0579
      6 C          -2.5520  -16.7550  -32.5790 C.3     1  UNL1       -0.0579
      7 C          -4.5770  -17.4610  -33.8270 C.3     1  UNL1       -0.0579
      8 N          -5.4380  -14.1560  -30.6310 N.am    1  UNL1       -0.2858
      9 O          -3.3160  -13.8080  -31.2800 O.2     1  UNL1       -0.2735
     10 C          -5.2790  -13.2520  -29.4820 C.3     1  UNL1        0.1047
     11 C          -6.6570  -13.2970  -28.7950 C.3     1  UNL1        0.0018
     12 C          -7.6160  -13.6890  -29.9130 C.3     1  UNL1        0.0731
     13 C          -6.8070  -14.6790  -30.7330 C.3     1  UNL1        0.0416
     14 O          -7.9420  -12.5380  -30.6980 O.3     1  UNL1       -0.3902
     15 C          -4.1850  -13.7000  -28.5220 C.2     1  UNL1        0.2339
     16 O          -3.9500  -14.8950  -28.3500 O.2     1  UNL1       -0.2738
     17 N          -3.5500  -12.7260  -27.8730 N.am    1  UNL1       -0.3095
     18 C          -2.6900  -12.9990  -26.7310 C.3     1  UNL1        0.0403
     19 C          -3.4060  -12.9370  -25.4040 C.ar    1  UNL1        0.0113
     20 C          -2.8270  -13.5190  -24.2710 C.ar    1  UNL1        0.1259
     21 C          -3.4420  -13.4370  -23.0300 C.ar    1  UNL1       -0.0113
     22 C          -4.6270  -12.7230  -22.8860 C.ar    1  UNL1       -0.0061
     23 C          -5.2220  -12.1630  -24.0110 C.ar    1  UNL1       -0.0529
     24 C          -4.6130  -12.2580  -25.2470 C.ar    1  UNL1       -0.0530
     25 C          -5.2700  -12.6250  -21.5590 C.ar    1  UNL1        0.0418
     26 C          -4.7700  -12.2170  -20.3460 C.ar    1  UNL1        0.0531
     27 N          -5.6900  -12.2100  -19.3120 N.ar    1  UNL1       -0.2520
     28 C          -6.8400  -12.6060  -19.7330 C.ar    1  UNL1        0.0655
     29 S          -6.9290  -13.0150  -21.4000 S.2     1  UNL1       -0.0752
     30 C          -3.3780  -11.7530  -20.0590 C.3     1  UNL1       -0.0212
     31 C          -4.3930  -14.0260  -34.9430 C.2     1  UNL1        0.2508
     32 C          -3.3240  -13.3930  -35.8800 C.3     1  UNL1        0.1868
     33 O          -5.5680  -14.0900  -35.2710 O.2     1  UNL1       -0.2723
     34 C          -3.2850  -13.7770  -37.3030 C.3     1  UNL1       -0.0068
     35 C          -3.6150  -12.3650  -36.9030 C.3     1  UNL1       -0.0068
     36 O          -1.6290  -14.1460  -24.4980 O.3     1  UNL1       -0.4893
     37 C          -1.0230  -14.9360  -23.4700 C.3     1  UNL1        0.1128
     38 O          -2.2840  -16.5450  -24.6700 O.3     1  UNL1       -0.3742
     39 C          -2.5210  -17.8760  -25.0890 C.3     1  UNL1        0.0712
     40 C          -2.6220  -17.8960  -26.5800 C.3     1  UNL1        0.0713
     41 O          -2.5840  -19.2280  -27.0660 O.3     1  UNL1       -0.3723
     42 C          -1.0210  -16.3150  -24.0450 C.3     1  UNL1        0.0818
     43 C          -1.2760  -19.7730  -27.1390 C.3     1  UNL1        0.0876
     44 C          -1.1810  -20.6760  -28.3520 C.3     1  UNL1       -0.0078
     45 N          -0.0580  -20.3740  -29.2580 N.4     1  UNL1        0.2391
     46 C           0.8780  -19.3740  -28.7070 C.3     1  UNL1       -0.0157
     47 C           2.0550  -19.1730  -29.6460 C.3     1  UNL1        0.0526
     48 N           1.5760  -18.7720  -30.9710 N.pl3   1  UNL1       -0.3170
     49 C           0.6110  -19.7240  -31.5240 C.3     1  UNL1        0.0526
     50 C          -0.5480  -19.9120  -30.5640 C.3     1  UNL1       -0.0157
     51 C           2.4840  -18.1650  -31.8760 C.ar    1  UNL1        0.0740
     52 C           3.7690  -18.6520  -32.1100 C.ar    1  UNL1       -0.0094
     53 C           4.5680  -17.9990  -33.0490 C.ar    1  UNL1        0.0987
     54 N           4.1180  -16.9320  -33.7260 N.ar    1  UNL1       -0.1473
     55 N           2.8610  -16.4750  -33.5300 N.ar    1  UNL1       -0.1321
     56 C           2.0350  -17.0720  -32.6590 C.ar    1  UNL1        0.1599
     57 N           0.8350  -16.5040  -32.5020 N.pl3   1  UNL1       -0.3403
     58 C           5.9720  -18.4140  -33.3250 C.ar    1  UNL1        0.0436
     59 C           6.7670  -17.7550  -34.2800 C.ar    1  UNL1        0.1261
     60 C           8.0730  -18.1870  -34.5400 C.ar    1  UNL1       -0.0195
     61 C           8.5840  -19.2900  -33.8770 C.ar    1  UNL1       -0.0583
     62 C           7.8120  -19.9510  -32.9370 C.ar    1  UNL1       -0.0609
     63 C           6.5210  -19.5160  -32.6600 C.ar    1  UNL1       -0.0490
     64 O           6.3120  -16.7080  -35.0100 O.3     1  UNL1       -0.5061
     65 F          -2.0510  -13.2740  -35.2680 F       1  UNL1       -0.2320
     66 H          -2.9509  -14.3446  -33.6472 H       1  UNL1        0.1496
     67 H          -5.6330  -15.3187  -32.9085 H       1  UNL1        0.0600
     68 H          -4.2899  -16.8523  -30.4776 H       1  UNL1        0.0236
     69 H          -4.2658  -18.3867  -31.3131 H       1  UNL1        0.0236
     70 H          -5.6937  -17.3814  -31.3734 H       1  UNL1        0.0236
     71 H          -2.1846  -16.2181  -31.7295 H       1  UNL1        0.0236
     72 H          -2.1606  -16.3179  -33.4738 H       1  UNL1        0.0236
     73 H          -2.2420  -17.7772  -32.5162 H       1  UNL1        0.0236
     74 H          -5.6458  -17.4256  -33.8639 H       1  UNL1        0.0236
     75 H          -4.2561  -18.4794  -33.7575 H       1  UNL1        0.0236
     76 H          -4.1747  -17.0201  -34.7151 H       1  UNL1        0.0236
     77 H          -4.9818  -12.2715  -29.7904 H       1  UNL1        0.0597
     78 H          -6.9129  -12.3388  -28.3934 H       1  UNL1        0.0313
     79 H          -6.6839  -13.9802  -27.9720 H       1  UNL1        0.0313
     80 H          -8.5414  -14.0950  -29.5613 H       1  UNL1        0.0610
     81 H          -6.8735  -15.6641  -30.3207 H       1  UNL1        0.0490
     82 H          -7.1493  -14.7675  -31.7429 H       1  UNL1        0.0490
     83 H          -7.1268  -12.1372  -31.0382 H       1  UNL1        0.2098
     84 H          -3.6654  -11.7957  -28.1739 H       1  UNL1        0.1491
     85 H          -1.9001  -12.2772  -26.7227 H       1  UNL1        0.0513
     86 H          -2.3277  -13.9994  -26.8444 H       1  UNL1        0.0513
     87 H          -3.0200  -13.9060  -22.2133 H       1  UNL1        0.0660
     88 H          -6.1256  -11.6726  -23.9218 H       1  UNL1        0.0624
     89 H          -5.0589  -11.8191  -26.0677 H       1  UNL1        0.0622
     90 H          -7.6584  -12.6738  -19.1080 H       1  UNL1        0.0907
     91 H          -2.7899  -11.8166  -20.9506 H       1  UNL1        0.0293
     92 H          -2.9449  -12.3719  -19.3012 H       1  UNL1        0.0293
     93 H          -3.4030  -10.7385  -19.7198 H       1  UNL1        0.0293
     94 H          -4.0455  -14.4112  -37.7083 H       1  UNL1        0.0302
     95 H          -2.5629  -14.2348  -37.9463 H       1  UNL1        0.0302
     96 H          -2.9148  -11.5771  -37.0870 H       1  UNL1        0.0302
     97 H          -4.4218  -11.6887  -37.0942 H       1  UNL1        0.0302
     98 H          -1.5990  -14.8982  -22.5690 H       1  UNL1        0.0720
     99 H          -0.0446  -14.5941  -23.2040 H       1  UNL1        0.0720
    100 H          -3.4351  -18.2312  -24.6610 H       1  UNL1        0.0583
    101 H          -1.7194  -18.5082  -24.7685 H       1  UNL1        0.0583
    102 H          -1.8029  -17.3469  -26.9952 H       1  UNL1        0.0583
    103 H          -3.5510  -17.4503  -26.8684 H       1  UNL1        0.0583
    104 H          -0.8680  -17.0314  -23.2651 H       1  UNL1        0.0594
    105 H          -0.2329  -16.4130  -24.7621 H       1  UNL1        0.0594
    106 H          -1.0742  -20.3396  -26.2541 H       1  UNL1        0.0613
    107 H          -0.5604  -18.9818  -27.2222 H       1  UNL1        0.0613
    108 H          -2.0911  -20.5851  -28.9073 H       1  UNL1        0.0837
    109 H          -1.0119  -21.6650  -27.9802 H       1  UNL1        0.0837
    110 H           0.4548  -21.2488  -29.3681 H       1  UNL1        0.2035
    111 H           1.2383  -19.7139  -27.7585 H       1  UNL1        0.0830
    112 H           0.3627  -18.4431  -28.5937 H       1  UNL1        0.0830
    113 H           2.6023  -20.0887  -29.7292 H       1  UNL1        0.0516
    114 H           2.6894  -18.4053  -29.2547 H       1  UNL1        0.0516
    115 H           1.0944  -20.6652  -31.6831 H       1  UNL1        0.0516
    116 H           0.2377  -19.3437  -32.4519 H       1  UNL1        0.0516
    117 H          -1.0585  -18.9798  -30.4400 H       1  UNL1        0.0830
    118 H          -1.2165  -20.6453  -30.9644 H       1  UNL1        0.0830
    119 H           4.1214  -19.4771  -31.6001 H       1  UNL1        0.0659
    120 H           0.1833  -16.8952  -31.8764 H       1  UNL1        0.1438
    121 H           0.6030  -15.6945  -33.0120 H       1  UNL1        0.1438
    122 H           8.6556  -17.6828  -35.2266 H       1  UNL1        0.0654
    123 H           9.5400  -19.6192  -34.0835 H       1  UNL1        0.0619
    124 H           8.1963  -20.7697  -32.4400 H       1  UNL1        0.0618
    125 H           5.9584  -20.0139  -31.9525 H       1  UNL1        0.0625
    126 H           5.4441  -16.3827  -34.8722 H       1  UNL1        0.2922
@<TRIPOS>UNITY_ATOM_ATTR
45 1
charge 1
@<TRIPOS>BOND
     1     1     2    1
     2     1    31   am
     3     2     3    1
     4     2     4    1
     5     4     8   am
     6     4     9    2
     7     3     5    1
     8     3     6    1
     9     3     7    1
    10     8    10    1
    11    10    11    1
    12    10    15    1
    13    11    12    1
    14    12    14    1
    15     8    13    1
    16    12    13    1
    17    15    16    2
    18    15    17   am
    19    17    18    1
    20    18    19    1
    21    19    20   ar
    22    20    21   ar
    23    20    36    1
    24    21    22   ar
    25    22    23   ar
    26    22    25    1
    27    19    24   ar
    28    23    24   ar
    29    25    29   ar
    30    25    26   ar
    31    26    27   ar
    32    26    30    1
    33    27    28   ar
    34    28    29   ar
    35    31    32    1
    36    31    33    2
    37    32    34    1
    38    32    35    1
    39    32    65    1
    40    34    35    1
    41    36    37    1
    42    37    42    1
    43    38    39    1
    44    38    42    1
    45    39    40    1
    46    40    41    1
    47    41    43    1
    48    43    44    1
    49    44    45    1
    50    45    46    1
    51    45    50    1
    52    46    47    1
    53    47    48    1
    54    48    49    1
    55    48    51    1
    56    49    50    1
    57    51    52   ar
    58    51    56   ar
    59    52    53   ar
    60    53    54   ar
    61    53    58    1
    62    54    55   ar
    63    55    56   ar
    64    56    57    1
    65    58    59   ar
    66    58    63   ar
    67    59    60   ar
    68    59    64    1
    69    60    61   ar
    70    61    62   ar
    71    62    63   ar
    72     1    66    1
    73     2    67    1
    74     5    68    1
    75     5    69    1
    76     5    70    1
    77     6    71    1
    78     6    72    1
    79     6    73    1
    80     7    74    1
    81     7    75    1
    82     7    76    1
    83    10    77    1
    84    11    78    1
    85    11    79    1
    86    12    80    1
    87    13    81    1
    88    13    82    1
    89    14    83    1
    90    17    84    1
    91    18    85    1
    92    18    86    1
    93    21    87    1
    94    23    88    1
    95    24    89    1
    96    28    90    1
    97    30    91    1
    98    30    92    1
    99    30    93    1
   100    34    94    1
   101    34    95    1
   102    35    96    1
   103    35    97    1
   104    37    98    1
   105    37    99    1
   106    39   100    1
   107    39   101    1
   108    40   102    1
   109    40   103    1
   110    42   104    1
   111    42   105    1
   112    43   106    1
   113    43   107    1
   114    44   108    1
   115    44   109    1
   116    45   110    1
   117    46   111    1
   118    46   112    1
   119    47   113    1
   120    47   114    1
   121    49   115    1
   122    49   116    1
   123    50   117    1
   124    50   118    1
   125    52   119    1
   126    57   120    1
   127    57   121    1
   128    60   122    1
   129    61   123    1
   130    62   124    1
   131    63   125    1
   132    64   126    1
