# created with PyMOL 2.5.5
@<TRIPOS>MOLECULE
6hr2
125 132 1               
SMALL
USER_CHARGES
@<TRIPOS>ATOM
1	   N	-28.027	26.984	-5.965	N.pl3	1	UNL1	-0.301	
2	   N	-25.227	25.755	-7.729	N.pl3	1	UNL1	-0.286	
3	   N	-22.271	24.797	-5.797	N.pl3	1	UNL1	-0.310	
4	   N	-14.100	23.009	-8.477	N.2	1	UNL1	-0.252	
5	   N	-22.578	32.486	-4.751	N.3	1	UNL1	0.241	
6	   N	-24.249	32.549	-2.701	N.pl3	1	UNL1	-0.317	
7	   N	-26.752	31.916	0.653	N.2	1	UNL1	-0.147	
8	   N	-26.699	31.015	-0.345	N.2	1	UNL1	-0.132	
9	   N	-25.853	30.132	-2.234	N.4	1	UNL1	-0.340	
10	   C	-27.079	27.274	-7.029	C.3	1	UNL1	0.105	
11	   C	-26.788	28.803	-7.134	C.3	1	UNL1	-0.011	
12	   C	-25.847	26.411	-6.724	C.2	1	UNL1	0.237	
13	   C	-25.661	29.092	-8.136	C.3	1	UNL1	-0.058	
14	   C	-28.058	29.516	-7.614	C.3	1	UNL1	-0.058	
15	   C	-26.387	29.395	-5.776	C.3	1	UNL1	-0.058	
16	   C	-24.105	24.870	-7.381	C.3	1	UNL1	0.105	
17	   C	-23.617	24.342	-8.741	C.3	1	UNL1	0.002	
18	   C	-24.822	24.494	-9.657	C.3	1	UNL1	0.073	
19	   C	-25.470	25.787	-9.174	C.3	1	UNL1	0.042	
20	   C	-22.954	25.557	-6.654	C.2	1	UNL1	0.234	
21	   C	-21.039	25.240	-5.164	C.3	1	UNL1	0.040	
22	   C	-19.820	24.892	-5.986	C.2	1	UNL1	0.011	
23	   C	-18.627	25.603	-5.812	C.2	1	UNL1	0.126	
24	   C	-17.479	25.245	-6.512	C.2	1	UNL1	-0.011	
25	   C	-17.504	24.179	-7.408	C.2	1	UNL1	-0.006	
26	   C	-18.700	23.503	-7.618	C.2	1	UNL1	-0.053	
27	   C	-19.834	23.849	-6.910	C.2	1	UNL1	-0.053	
28	   C	-16.263	23.733	-8.075	C.2	1	UNL1	0.042	
29	   C	-15.033	23.425	-7.551	C.2	1	UNL1	0.053	
30	   C	-14.600	23.006	-9.670	C.2	1	UNL1	0.065	
31	   C	-14.624	23.503	-6.116	C.3	1	UNL1	-0.021	
32	   C	-29.257	26.472	-6.060	C.2	1	UNL1	0.251	
33	   C	-30.011	26.287	-4.755	C.3	1	UNL1	0.187	
34	   C	-31.444	26.633	-4.703	C.3	1	UNL1	-0.007	
35	   C	-30.989	25.222	-4.456	C.3	1	UNL1	-0.007	
36	   C	-17.572	27.500	-4.656	C.3	1	UNL1	0.094	
37	   C	-17.451	28.535	-5.760	C.3	1	UNL1	0.007	
38	   C	-21.701	32.528	-5.932	C.3	1	UNL1	-0.006	
39	   C	-23.983	32.245	-5.130	C.3	1	UNL1	-0.015	
40	   C	-24.937	32.617	-3.993	C.3	1	UNL1	0.053	
41	   C	-23.251	33.623	-2.658	C.3	1	UNL1	0.053	
42	   C	-22.472	33.721	-3.979	C.3	1	UNL1	-0.015	
43	   C	-25.068	32.343	-1.517	C.2	1	UNL1	0.074	
44	   C	-25.129	33.261	-0.466	C.2	1	UNL1	-0.009	
45	   C	-25.981	33.010	0.618	C.2	1	UNL1	0.099	
46	   C	-25.889	31.183	-1.398	C.2	1	UNL1	0.160	
47	   C	-26.073	33.908	1.806	C.2	1	UNL1	0.044	
48	   C	-26.936	33.628	2.883	C.2	1	UNL1	0.126	
49	   C	-26.995	34.480	3.988	C.2	1	UNL1	-0.020	
50	   C	-26.204	35.615	4.033	C.2	1	UNL1	-0.058	
51	   C	-25.368	35.915	2.979	C.2	1	UNL1	-0.061	
52	   C	-25.297	35.073	1.879	C.2	1	UNL1	-0.049	
53	   C	-18.569	29.554	-5.768	C.2	1	UNL1	-0.044	
54	   C	-18.393	30.812	-5.198	C.2	1	UNL1	-0.058	
55	   C	-19.396	31.766	-5.252	C.2	1	UNL1	-0.053	
56	   C	-20.607	31.493	-5.878	C.2	1	UNL1	-0.003	
57	   C	-20.785	30.238	-6.446	C.2	1	UNL1	-0.053	
58	   C	-19.783	29.282	-6.389	C.2	1	UNL1	-0.058	
59	   O	-25.472	26.307	-5.565	O.2	1	UNL1	-0.273	
60	   O	-25.717	23.404	-9.451	O.3	1	UNL1	-0.390	
61	   O	-22.694	26.733	-6.870	O.2	1	UNL1	-0.274	
62	   O	-29.802	26.136	-7.100	O.2	1	UNL1	-0.272	
63	   O	-18.709	26.654	-4.920	O.3	1	UNL1	-0.491	
64	   O	-27.781	32.563	2.947	O.3	1	UNL1	-0.506	
65	   F	-29.253	26.717	-3.645	 F	1	UNL1	-0.232	
66	 H01	-24.519	34.164	-0.489	 H	1	UNL1	0.000	
67	 H02	-24.940	30.074	-2.661	 H	1	UNL1	0.000	
68	 H03	-26.037	29.284	-1.718	 H	1	UNL1	0.000	
69	 H04	-26.553	30.248	-2.952	 H	1	UNL1	0.000	
70	 H05	-14.015	22.709	-10.540	 H	1	UNL1	0.000	
71	   S	-16.242	23.498	-9.802	S.3	1	UNL1	-0.075	
72	   H	-27.721	27.193	-5.053	 H	1	UNL1	0.150	
73	   H	-27.458	27.028	-7.999	 H	1	UNL1	0.060	
74	   H	-25.921	28.687	-9.092	 H	1	UNL1	0.024	
75	   H	-24.754	28.641	-7.792	 H	1	UNL1	0.024	
76	   H	-25.523	30.150	-8.222	 H	1	UNL1	0.024	
77	   H	-28.355	29.117	-8.561	 H	1	UNL1	0.024	
78	   H	-27.863	30.563	-7.714	 H	1	UNL1	0.024	
79	   H	-28.842	29.365	-6.902	 H	1	UNL1	0.024	
80	   H	-25.501	28.910	-5.423	 H	1	UNL1	0.024	
81	   H	-27.180	29.245	-5.073	 H	1	UNL1	0.024	
82	   H	-26.201	30.443	-5.885	 H	1	UNL1	0.024	
83	   H	-24.434	24.116	-6.696	 H	1	UNL1	0.060	
84	   H	-23.325	23.315	-8.666	 H	1	UNL1	0.031	
85	   H	-22.760	24.871	-9.101	 H	1	UNL1	0.031	
86	   H	-24.567	24.510	-10.696	 H	1	UNL1	0.061	
87	   H	-25.007	26.641	-9.623	 H	1	UNL1	0.049	
88	   H	-26.507	25.860	-9.427	 H	1	UNL1	0.049	
89	   H	-25.967	23.363	-8.515	 H	1	UNL1	0.210	
90	   H	-22.615	23.899	-5.584	 H	1	UNL1	0.149	
91	   H	-20.955	24.770	-4.206	 H	1	UNL1	0.051	
92	   H	-21.081	26.305	-5.072	 H	1	UNL1	0.051	
93	   H	-16.604	25.772	-6.366	 H	1	UNL1	0.066	
94	   H	-18.741	22.737	-8.308	 H	1	UNL1	0.062	
95	   H	-20.709	23.325	-7.068	 H	1	UNL1	0.062	
96	   H	-15.452	23.839	-5.527	 H	1	UNL1	0.029	
97	   H	-13.811	24.191	-6.014	 H	1	UNL1	0.029	
98	   H	-14.317	22.535	-5.780	 H	1	UNL1	0.029	
99	   H	-31.970	26.878	-5.602	 H	1	UNL1	0.030	
100	   H	-32.035	27.346	-4.166	 H	1	UNL1	0.030	
101	   H	-31.044	24.805	-3.472	 H	1	UNL1	0.030	
102	   H	-31.221	24.264	-4.873	 H	1	UNL1	0.030	
103	   H	-16.683	26.905	-4.625	 H	1	UNL1	0.070	
104	   H	-17.702	27.993	-3.715	 H	1	UNL1	0.070	
105	   H	-17.452	28.026	-6.701	 H	1	UNL1	0.035	
106	   H	-16.542	29.072	-5.585	 H	1	UNL1	0.035	
107	   H	-21.253	33.498	-5.992	 H	1	UNL1	0.087	
108	   H	-22.304	32.318	-6.791	 H	1	UNL1	0.087	
109	   H	-24.108	31.209	-5.365	 H	1	UNL1	0.083	
110	   H	-24.214	32.856	-5.978	 H	1	UNL1	0.083	
111	   H	-25.762	31.935	-3.989	 H	1	UNL1	0.052	
112	   H	-25.285	33.617	-4.147	 H	1	UNL1	0.052	
113	   H	-22.563	33.427	-1.862	 H	1	UNL1	0.052	
114	   H	-23.762	34.550	-2.500	 H	1	UNL1	0.052	
115	   H	-22.868	34.529	-4.558	 H	1	UNL1	0.083	
116	   H	-21.440	33.889	-3.751	 H	1	UNL1	0.083	
117	   H	-27.629	34.263	4.772	 H	1	UNL1	0.065	
118	   H	-26.240	36.237	4.856	 H	1	UNL1	0.062	
119	   H	-24.792	36.771	3.008	 H	1	UNL1	0.062	
120	   H	-24.662	35.308	1.101	 H	1	UNL1	0.062	
121	   H	-27.805	31.941	2.246	 H	1	UNL1	0.292	
122	   H	-17.502	31.037	-4.728	 H	1	UNL1	0.062	
123	   H	-19.242	32.691	-4.822	 H	1	UNL1	0.062	
124	   H	-21.676	30.014	-6.917	 H	1	UNL1	0.062	
125	   H	-19.940	28.355	-6.814	 H	1	UNL1	0.062	
@<TRIPOS>BOND
1 1 10 1
2 1 32 1
3 1 72 1
4 2 16 1
5 2 19 1
6 3 21 1
7 3 90 1
8 4 30 2
9 5 39 1
10 5 42 1
11 6 41 1
12 6 43 1
13 7 8 2
14 8 46 1
15 9 67 1
16 9 68 1
17 9 69 1
18 10 11 1
19 10 12 1
20 10 73 1
21 11 13 1
22 11 14 1
23 11 15 1
24 2 12 1
25 12 59 2
26 13 74 1
27 13 75 1
28 13 76 1
29 14 77 1
30 14 78 1
31 14 79 1
32 15 80 1
33 15 81 1
34 15 82 1
35 16 17 1
36 16 20 1
37 16 83 1
38 17 18 1
39 17 84 1
40 17 85 1
41 18 19 1
42 18 60 1
43 18 86 1
44 19 87 1
45 19 88 1
46 3 20 1
47 20 61 2
48 21 22 1
49 21 91 1
50 21 92 1
51 22 23 ar
52 22 27 ar
53 23 24 ar
54 23 63 1
55 24 25 ar
56 24 93 1
57 25 26 ar
58 25 28 1
59 26 27 ar
60 26 94 1
61 27 95 1
62 28 29 2
63 28 71 1
64 4 29 1
65 29 31 1
66 30 70 1
67 30 71 1
68 31 96 1
69 31 97 1
70 31 98 1
71 32 33 1
72 32 62 2
73 33 34 1
74 33 35 1
75 33 65 1
76 34 35 1
77 34 99 1
78 34 100 1
79 35 101 1
80 35 102 1
81 36 37 1
82 36 103 1
83 36 104 1
84 37 53 1
85 37 105 1
86 37 106 1
87 5 38 1
88 38 56 1
89 38 107 1
90 38 108 1
91 39 40 1
92 39 109 1
93 39 110 1
94 6 40 1
95 40 111 1
96 40 112 1
97 41 42 1
98 41 113 1
99 41 114 1
100 42 115 1
101 42 116 1
102 43 44 1
103 43 46 2
104 44 45 2
105 44 66 1
106 7 45 1
107 45 47 1
108 9 46 1
109 47 48 ar
110 47 52 ar
111 48 49 ar
112 48 64 1
113 49 50 ar
114 49 117 1
115 50 51 ar
116 50 118 1
117 51 52 ar
118 51 119 1
119 52 120 1
120 53 54 ar
121 53 58 ar
122 54 55 ar
123 54 122 1
124 55 56 ar
125 55 123 1
126 56 57 ar
127 57 58 ar
128 57 124 1
129 58 125 1
130 60 89 1
131 36 63 1
132 64 121 1
@<TRIPOS>SUBSTRUCTURE
1	UNL1	1	GROUP	1 ****	UNL
