@<TRIPOS>MOLECULE
6hr2
 125 132 0 0 0
SMALL
USER_CHARGES

@<TRIPOS>ATOM
      1 N         -28.0270   26.9840   -5.9650 N.am    1  UNL1       -0.3009
      2 C         -27.0790   27.2740   -7.0290 C.3     1  UNL1        0.1045
      3 C         -26.7880   28.8030   -7.1340 C.3     1  UNL1       -0.0108
      4 C         -25.8470   26.4110   -6.7240 C.2     1  UNL1        0.2371
      5 C         -25.6610   29.0920   -8.1360 C.3     1  UNL1       -0.0579
      6 C         -28.0580   29.5160   -7.6140 C.3     1  UNL1       -0.0579
      7 C         -26.3870   29.3950   -5.7760 C.3     1  UNL1       -0.0579
      8 N         -25.2270   25.7550   -7.7290 N.am    1  UNL1       -0.2858
      9 O         -25.4720   26.3070   -5.5650 O.2     1  UNL1       -0.2735
     10 C         -24.1050   24.8700   -7.3810 C.3     1  UNL1        0.1047
     11 C         -23.6170   24.3420   -8.7410 C.3     1  UNL1        0.0018
     12 C         -24.8220   24.4940   -9.6570 C.3     1  UNL1        0.0731
     13 C         -25.4700   25.7870   -9.1740 C.3     1  UNL1        0.0416
     14 O         -25.7170   23.4040   -9.4510 O.3     1  UNL1       -0.3902
     15 C         -22.9540   25.5570   -6.6540 C.2     1  UNL1        0.2339
     16 O         -22.6940   26.7330   -6.8700 O.2     1  UNL1       -0.2738
     17 N         -22.2710   24.7970   -5.7970 N.am    1  UNL1       -0.3095
     18 C         -21.0390   25.2400   -5.1640 C.3     1  UNL1        0.0403
     19 C         -19.8200   24.8920   -5.9860 C.ar    1  UNL1        0.0113
     20 C         -18.6270   25.6030   -5.8120 C.ar    1  UNL1        0.1258
     21 C         -17.4790   25.2450   -6.5120 C.ar    1  UNL1       -0.0113
     22 C         -17.5040   24.1790   -7.4080 C.ar    1  UNL1       -0.0061
     23 C         -18.7000   23.5030   -7.6180 C.ar    1  UNL1       -0.0529
     24 C         -19.8340   23.8490   -6.9100 C.ar    1  UNL1       -0.0530
     25 C         -16.2630   23.7330   -8.0750 C.ar    1  UNL1        0.0418
     26 C         -15.0330   23.4250   -7.5510 C.ar    1  UNL1        0.0531
     27 N         -14.1000   23.0090   -8.4770 N.ar    1  UNL1       -0.2520
     28 C         -14.6000   23.0060   -9.6700 C.ar    1  UNL1        0.0655
     29 S         -16.2420   23.4980   -9.8020 S.2     1  UNL1       -0.0752
     30 C         -14.6240   23.5030   -6.1160 C.3     1  UNL1       -0.0212
     31 C         -29.2570   26.4720   -6.0600 C.2     1  UNL1        0.2508
     32 C         -30.0110   26.2870   -4.7550 C.3     1  UNL1        0.1868
     33 O         -29.8020   26.1360   -7.1000 O.2     1  UNL1       -0.2723
     34 C         -31.4440   26.6330   -4.7030 C.3     1  UNL1       -0.0068
     35 C         -30.9890   25.2220   -4.4560 C.3     1  UNL1       -0.0068
     36 O         -18.7090   26.6540   -4.9200 O.3     1  UNL1       -0.4913
     37 C         -17.5720   27.5000   -4.6560 C.3     1  UNL1        0.0936
     38 C         -17.4510   28.5350   -5.7600 C.3     1  UNL1        0.0066
     39 C         -21.7010   32.5280   -5.9320 C.3     1  UNL1       -0.0058
     40 N         -22.5780   32.4860   -4.7510 N.4     1  UNL1        0.2407
     41 C         -23.9830   32.2450   -5.1300 C.3     1  UNL1       -0.0154
     42 C         -24.9370   32.6170   -3.9930 C.3     1  UNL1        0.0526
     43 N         -24.2490   32.5490   -2.7010 N.pl3   1  UNL1       -0.3170
     44 C         -23.2510   33.6230   -2.6580 C.3     1  UNL1        0.0526
     45 C         -22.4720   33.7210   -3.9790 C.3     1  UNL1       -0.0154
     46 C         -25.0680   32.3430   -1.5170 C.ar    1  UNL1        0.0740
     47 C         -25.1290   33.2610   -0.4660 C.ar    1  UNL1       -0.0094
     48 C         -25.9810   33.0100    0.6180 C.ar    1  UNL1        0.0987
     49 N         -26.7520   31.9160    0.6530 N.ar    1  UNL1       -0.1473
     50 N         -26.6990   31.0150   -0.3450 N.ar    1  UNL1       -0.1321
     51 C         -25.8890   31.1830   -1.3980 C.ar    1  UNL1        0.1599
     52 N         -25.8530   30.1320   -2.2340 N.pl3   1  UNL1       -0.3403
     53 C         -26.0730   33.9080    1.8060 C.ar    1  UNL1        0.0436
     54 C         -26.9360   33.6280    2.8830 C.ar    1  UNL1        0.1261
     55 C         -26.9950   34.4800    3.9880 C.ar    1  UNL1       -0.0195
     56 C         -26.2040   35.6150    4.0330 C.ar    1  UNL1       -0.0583
     57 C         -25.3680   35.9150    2.9790 C.ar    1  UNL1       -0.0609
     58 C         -25.2970   35.0730    1.8790 C.ar    1  UNL1       -0.0490
     59 O         -27.7810   32.5630    2.9470 O.3     1  UNL1       -0.5061
     60 C         -18.5690   29.5540   -5.7680 C.ar    1  UNL1       -0.0441
     61 C         -18.3930   30.8120   -5.1980 C.ar    1  UNL1       -0.0580
     62 C         -19.3960   31.7660   -5.2520 C.ar    1  UNL1       -0.0533
     63 C         -20.6070   31.4930   -5.8780 C.ar    1  UNL1       -0.0029
     64 C         -20.7850   30.2380   -6.4460 C.ar    1  UNL1       -0.0533
     65 C         -19.7830   29.2820   -6.3890 C.ar    1  UNL1       -0.0580
     66 F         -29.2530   26.7170   -3.6450 F       1  UNL1       -0.2320
     67 H         -27.7213   27.1930   -5.0528 H       1  UNL1        0.1496
     68 H         -27.4582   27.0285   -7.9990 H       1  UNL1        0.0600
     69 H         -25.9208   28.6868   -9.0916 H       1  UNL1        0.0236
     70 H         -24.7537   28.6410   -7.7921 H       1  UNL1        0.0236
     71 H         -25.5232   30.1496   -8.2225 H       1  UNL1        0.0236
     72 H         -28.3547   29.1168   -8.5614 H       1  UNL1        0.0236
     73 H         -27.8631   30.5634   -7.7135 H       1  UNL1        0.0236
     74 H         -28.8424   29.3653   -6.9020 H       1  UNL1        0.0236
     75 H         -25.5010   28.9099   -5.4230 H       1  UNL1        0.0236
     76 H         -27.1799   29.2449   -5.0733 H       1  UNL1        0.0236
     77 H         -26.2005   30.4430   -5.8848 H       1  UNL1        0.0236
     78 H         -24.4337   24.1162   -6.6964 H       1  UNL1        0.0597
     79 H         -23.3246   23.3154   -8.6664 H       1  UNL1        0.0313
     80 H         -22.7598   24.8713   -9.1015 H       1  UNL1        0.0313
     81 H         -24.5672   24.5103  -10.6961 H       1  UNL1        0.0610
     82 H         -25.0073   26.6407   -9.6234 H       1  UNL1        0.0490
     83 H         -26.5072   25.8599   -9.4266 H       1  UNL1        0.0490
     84 H         -25.9668   23.3633   -8.5146 H       1  UNL1        0.2098
     85 H         -22.6149   23.8994   -5.5842 H       1  UNL1        0.1491
     86 H         -20.9549   24.7701   -4.2064 H       1  UNL1        0.0513
     87 H         -21.0808   26.3052   -5.0717 H       1  UNL1        0.0513
     88 H         -16.6040   25.7724   -6.3664 H       1  UNL1        0.0660
     89 H         -18.7409   22.7368   -8.3081 H       1  UNL1        0.0624
     90 H         -20.7088   23.3250   -7.0683 H       1  UNL1        0.0622
     91 H         -14.0459   22.7248  -10.4940 H       1  UNL1        0.0907
     92 H         -15.4516   23.8391   -5.5270 H       1  UNL1        0.0293
     93 H         -13.8108   24.1908   -6.0138 H       1  UNL1        0.0293
     94 H         -14.3167   22.5349   -5.7796 H       1  UNL1        0.0293
     95 H         -31.9699   26.8775   -5.6022 H       1  UNL1        0.0302
     96 H         -32.0345   27.3459   -4.1664 H       1  UNL1        0.0302
     97 H         -31.0442   24.8047   -3.4723 H       1  UNL1        0.0302
     98 H         -31.2213   24.2642   -4.8727 H       1  UNL1        0.0302
     99 H         -16.6832   26.9051   -4.6246 H       1  UNL1        0.0700
    100 H         -17.7019   27.9925   -3.7150 H       1  UNL1        0.0700
    101 H         -17.4521   28.0259   -6.7011 H       1  UNL1        0.0346
    102 H         -16.5420   29.0717   -5.5852 H       1  UNL1        0.0346
    103 H         -21.2528   33.4977   -5.9918 H       1  UNL1        0.0867
    104 H         -22.3036   32.3184   -6.7910 H       1  UNL1        0.0867
    105 H         -22.2670   31.7076   -4.1698 H       1  UNL1        0.2038
    106 H         -24.1078   31.2086   -5.3648 H       1  UNL1        0.0830
    107 H         -24.2137   32.8556   -5.9779 H       1  UNL1        0.0830
    108 H         -25.7619   31.9355   -3.9887 H       1  UNL1        0.0516
    109 H         -25.2847   33.6171   -4.1470 H       1  UNL1        0.0516
    110 H         -22.5630   33.4267   -1.8624 H       1  UNL1        0.0516
    111 H         -23.7618   34.5498   -2.4999 H       1  UNL1        0.0516
    112 H         -22.8681   34.5289   -4.5580 H       1  UNL1        0.0830
    113 H         -21.4402   33.8888   -3.7507 H       1  UNL1        0.0830
    114 H         -24.5519   34.1163   -0.4875 H       1  UNL1        0.0659
    115 H         -25.2853   30.1616   -3.0378 H       1  UNL1        0.1438
    116 H         -26.3943   29.3322   -2.0429 H       1  UNL1        0.1438
    117 H         -27.6295   34.2630    4.7724 H       1  UNL1        0.0654
    118 H         -26.2402   36.2367    4.8559 H       1  UNL1        0.0619
    119 H         -24.7918   36.7707    3.0084 H       1  UNL1        0.0618
    120 H         -24.6616   35.3084    1.1006 H       1  UNL1        0.0625
    121 H         -27.8051   31.9413    2.2464 H       1  UNL1        0.2922
    122 H         -17.5021   31.0371   -4.7283 H       1  UNL1        0.0620
    123 H         -19.2423   32.6914   -4.8219 H       1  UNL1        0.0622
    124 H         -21.6756   30.0143   -6.9170 H       1  UNL1        0.0622
    125 H         -19.9403   28.3547   -6.8137 H       1  UNL1        0.0620
@<TRIPOS>UNITY_ATOM_ATTR
40 1
charge 1
@<TRIPOS>BOND
     1     1     2    1
     2     1    31   am
     3     2     3    1
     4     2     4    1
     5     4     8   am
     6     4     9    2
     7     3     5    1
     8     3     6    1
     9     3     7    1
    10     8    10    1
    11    10    11    1
    12    10    15    1
    13    11    12    1
    14    12    14    1
    15     8    13    1
    16    12    13    1
    17    15    16    2
    18    15    17   am
    19    17    18    1
    20    18    19    1
    21    19    20   ar
    22    20    21   ar
    23    20    36    1
    24    21    22   ar
    25    22    23   ar
    26    22    25    1
    27    19    24   ar
    28    23    24   ar
    29    25    29   ar
    30    25    26   ar
    31    26    27   ar
    32    26    30    1
    33    27    28   ar
    34    28    29   ar
    35    31    32    1
    36    31    33    2
    37    32    34    1
    38    32    35    1
    39    32    66    1
    40    34    35    1
    41    36    37    1
    42    37    38    1
    43    38    60    1
    44    39    40    1
    45    39    63    1
    46    40    41    1
    47    40    45    1
    48    41    42    1
    49    42    43    1
    50    43    44    1
    51    43    46    1
    52    44    45    1
    53    46    47   ar
    54    46    51   ar
    55    47    48   ar
    56    48    49   ar
    57    48    53    1
    58    49    50   ar
    59    50    51   ar
    60    51    52    1
    61    53    54   ar
    62    53    58   ar
    63    54    55   ar
    64    54    59    1
    65    55    56   ar
    66    56    57   ar
    67    57    58   ar
    68    60    61   ar
    69    60    65   ar
    70    61    62   ar
    71    62    63   ar
    72    63    64   ar
    73    64    65   ar
    74     1    67    1
    75     2    68    1
    76     5    69    1
    77     5    70    1
    78     5    71    1
    79     6    72    1
    80     6    73    1
    81     6    74    1
    82     7    75    1
    83     7    76    1
    84     7    77    1
    85    10    78    1
    86    11    79    1
    87    11    80    1
    88    12    81    1
    89    13    82    1
    90    13    83    1
    91    14    84    1
    92    17    85    1
    93    18    86    1
    94    18    87    1
    95    21    88    1
    96    23    89    1
    97    24    90    1
    98    28    91    1
    99    30    92    1
   100    30    93    1
   101    30    94    1
   102    34    95    1
   103    34    96    1
   104    35    97    1
   105    35    98    1
   106    37    99    1
   107    37   100    1
   108    38   101    1
   109    38   102    1
   110    39   103    1
   111    39   104    1
   112    40   105    1
   113    41   106    1
   114    41   107    1
   115    42   108    1
   116    42   109    1
   117    44   110    1
   118    44   111    1
   119    45   112    1
   120    45   113    1
   121    47   114    1
   122    52   115    1
   123    52   116    1
   124    55   117    1
   125    56   118    1
   126    57   119    1
   127    58   120    1
   128    59   121    1
   129    61   122    1
   130    62   123    1
   131    64   124    1
   132    65   125    1
