# created with PyMOL 2.5.5
@<TRIPOS>MOLECULE
6hr2
124 131 1               
SMALL
USER_CHARGES
@<TRIPOS>ATOM
1	  N1	-28.027	26.984	-5.965	N.pl3	1	FWZ301	0.000	
2	  C2	-27.079	27.274	-7.029	C.3	1	FWZ301	0.000	
3	  C3	-26.788	28.803	-7.134	C.3	1	FWZ301	0.000	
4	  C4	-25.847	26.411	-6.724	C.2	1	FWZ301	0.000	
5	  C5	-25.661	29.092	-8.136	C.3	1	FWZ301	0.000	
6	  C6	-28.058	29.516	-7.614	C.3	1	FWZ301	0.000	
7	  C7	-26.387	29.395	-5.776	C.3	1	FWZ301	0.000	
8	  N8	-25.227	25.755	-7.729	N.pl3	1	FWZ301	0.000	
9	  O9	-25.472	26.307	-5.565	O.2	1	FWZ301	0.000	
10	 C10	-24.105	24.870	-7.381	C.3	1	FWZ301	0.000	
11	 C11	-23.617	24.342	-8.741	C.3	1	FWZ301	0.000	
12	 C12	-24.822	24.494	-9.657	C.3	1	FWZ301	0.000	
13	 C13	-25.470	25.787	-9.174	C.3	1	FWZ301	0.000	
14	 O14	-25.717	23.404	-9.451	O.3	1	FWZ301	0.000	
15	 C15	-22.954	25.557	-6.654	C.2	1	FWZ301	0.000	
16	 O16	-22.694	26.733	-6.870	O.2	1	FWZ301	0.000	
17	 N17	-22.271	24.797	-5.797	N.pl3	1	FWZ301	0.000	
18	 C18	-21.039	25.240	-5.164	C.3	1	FWZ301	0.000	
19	 C19	-19.820	24.892	-5.986	C.2	1	FWZ301	0.000	
20	 C20	-18.627	25.603	-5.812	C.2	1	FWZ301	0.000	
21	 C21	-17.479	25.245	-6.512	C.2	1	FWZ301	0.000	
22	 C22	-17.504	24.179	-7.408	C.2	1	FWZ301	0.000	
23	 C23	-18.700	23.503	-7.618	C.2	1	FWZ301	0.000	
24	 C24	-19.834	23.849	-6.910	C.2	1	FWZ301	0.000	
25	 C25	-16.263	23.733	-8.075	C.2	1	FWZ301	0.000	
26	 C26	-15.033	23.425	-7.551	C.2	1	FWZ301	0.000	
27	 N27	-14.100	23.009	-8.477	N.2	1	FWZ301	0.000	
28	 C28	-14.600	23.006	-9.670	C.2	1	FWZ301	0.000	
29	 S29	-16.242	23.498	-9.802	S.2	1	FWZ301	0.000	
30	 C30	-14.624	23.503	-6.116	C.3	1	FWZ301	0.000	
31	 C31	-29.257	26.472	-6.060	C.2	1	FWZ301	0.000	
32	 C32	-30.011	26.287	-4.755	C.3	1	FWZ301	0.000	
33	 O33	-29.802	26.136	-7.100	O.2	1	FWZ301	0.000	
34	 C35	-31.444	26.633	-4.703	C.3	1	FWZ301	0.000	
35	 C36	-30.989	25.222	-4.456	C.3	1	FWZ301	0.000	
36	 O37	-18.709	26.654	-4.920	O.3	1	FWZ301	0.000	
37	 C38	-17.572	27.500	-4.656	C.3	1	FWZ301	0.000	
38	 C39	-17.451	28.535	-5.760	C.3	1	FWZ301	0.000	
39	 C40	-21.701	32.528	-5.932	C.3	1	FWZ301	0.000	
40	 N41	-22.578	32.486	-4.751	N.3	1	FWZ301	0.000	
41	 C42	-23.983	32.245	-5.130	C.3	1	FWZ301	0.000	
42	 C43	-24.937	32.617	-3.993	C.3	1	FWZ301	0.000	
43	 N44	-24.249	32.549	-2.701	N.pl3	1	FWZ301	0.000	
44	 C45	-23.251	33.623	-2.658	C.3	1	FWZ301	0.000	
45	 C46	-22.472	33.721	-3.979	C.3	1	FWZ301	0.000	
46	 C47	-25.068	32.343	-1.517	C.2	1	FWZ301	0.000	
47	 C48	-25.129	33.261	-0.466	C.2	1	FWZ301	0.000	
48	 C49	-25.981	33.010	0.618	C.2	1	FWZ301	0.000	
49	 N50	-26.752	31.916	0.653	N.2	1	FWZ301	0.000	
50	 N51	-26.699	31.015	-0.345	N.2	1	FWZ301	0.000	
51	 C52	-25.889	31.183	-1.398	C.2	1	FWZ301	0.000	
52	 N53	-25.853	30.132	-2.234	N.pl3	1	FWZ301	0.000	
53	 C54	-26.073	33.908	1.806	C.2	1	FWZ301	0.000	
54	 C55	-26.936	33.628	2.883	C.2	1	FWZ301	0.000	
55	 C56	-26.995	34.480	3.988	C.2	1	FWZ301	0.000	
56	 C57	-26.204	35.615	4.033	C.2	1	FWZ301	0.000	
57	 C58	-25.368	35.915	2.979	C.2	1	FWZ301	0.000	
58	 C59	-25.297	35.073	1.879	C.2	1	FWZ301	0.000	
59	 O60	-27.781	32.563	2.947	O.3	1	FWZ301	0.000	
60	 C61	-18.569	29.554	-5.768	C.2	1	FWZ301	0.000	
61	 C62	-18.393	30.812	-5.198	C.2	1	FWZ301	0.000	
62	 C63	-19.396	31.766	-5.252	C.2	1	FWZ301	0.000	
63	 C64	-20.607	31.493	-5.878	C.2	1	FWZ301	0.000	
64	 C65	-20.785	30.238	-6.446	C.2	1	FWZ301	0.000	
65	 C66	-19.783	29.282	-6.389	C.2	1	FWZ301	0.000	
66	 F34	-29.253	26.717	-3.645	 F	1	FWZ301	0.000	
67	  H1	-27.655	27.138	-5.033	 H	1	FWZ301	0.000	
68	  H2	-25.570	30.154	-8.354	 H	1	FWZ301	0.000	
69	  H3	-25.849	28.608	-9.092	 H	1	FWZ301	0.000	
70	  H4	-24.689	28.740	-7.794	 H	1	FWZ301	0.000	
71	  H5	-27.888	30.577	-7.792	 H	1	FWZ301	0.000	
72	  H6	-28.860	29.451	-6.881	 H	1	FWZ301	0.000	
73	  H7	-28.446	29.100	-8.543	 H	1	FWZ301	0.000	
74	  H8	-25.457	28.967	-5.408	 H	1	FWZ301	0.000	
75	  H9	-27.116	29.242	-4.983	 H	1	FWZ301	0.000	
76	 H10	-26.225	30.470	-5.835	 H	1	FWZ301	0.000	
77	 H11	-24.496	24.066	-6.760	 H	1	FWZ301	0.000	
78	 H12	-24.990	26.641	-9.648	 H	1	FWZ301	0.000	
79	 H13	-26.525	25.860	-9.434	 H	1	FWZ301	0.000	
80	 H14	-16.527	25.765	-6.423	 H	1	FWZ301	0.000	
81	 H15	-20.744	23.276	-7.083	 H	1	FWZ301	0.000	
82	 H16	-14.035	22.713	-10.553	 H	1	FWZ301	0.000	
83	 H17	-27.541	26.998	-7.974	 H	1	FWZ301	0.000	
84	 H18	-23.294	23.307	-8.637	 H	1	FWZ301	0.000	
85	 H19	-22.758	24.885	-9.134	 H	1	FWZ301	0.000	
86	 H20	-24.525	24.545	-10.702	 H	1	FWZ301	0.000	
87	 H21	-26.507	23.586	-10.023	 H	1	FWZ301	0.000	
88	 H22	-22.582	23.857	-5.574	 H	1	FWZ301	0.000	
89	 H23	-20.926	24.803	-4.173	 H	1	FWZ301	0.000	
90	 H24	-21.094	26.311	-4.976	 H	1	FWZ301	0.000	
91	 H25	-18.748	22.695	-8.345	 H	1	FWZ301	0.000	
92	 H26	-13.593	23.175	-5.995	 H	1	FWZ301	0.000	
93	 H27	-15.243	22.870	-5.482	 H	1	FWZ301	0.000	
94	 H28	-14.690	24.519	-5.732	 H	1	FWZ301	0.000	
95	 H29	-31.988	26.885	-5.612	 H	1	FWZ301	0.000	
96	 H30	-31.834	27.244	-3.890	 H	1	FWZ301	0.000	
97	 H31	-31.046	24.788	-3.459	 H	1	FWZ301	0.000	
98	 H32	-31.195	24.441	-5.187	 H	1	FWZ301	0.000	
99	 H33	-17.728	28.015	-3.709	 H	1	FWZ301	0.000	
100	 H34	-16.647	26.935	-4.551	 H	1	FWZ301	0.000	
101	 H35	-17.395	28.054	-6.736	 H	1	FWZ301	0.000	
102	 H36	-16.498	29.055	-5.682	 H	1	FWZ301	0.000	
103	 H37	-21.245	33.500	-6.119	 H	1	FWZ301	0.000	
104	 H38	-22.289	32.330	-6.827	 H	1	FWZ301	0.000	
105	 H40	-24.170	31.222	-5.452	 H	1	FWZ301	0.000	
106	 H41	-24.245	32.860	-5.989	 H	1	FWZ301	0.000	
107	 H42	-25.810	31.968	-4.022	 H	1	FWZ301	0.000	
108	 H43	-25.347	33.607	-4.185	 H	1	FWZ301	0.000	
109	 H44	-22.568	33.469	-1.827	 H	1	FWZ301	0.000	
110	 H45	-23.708	34.596	-2.488	 H	1	FWZ301	0.000	
111	 H46	-22.887	34.546	-4.556	 H	1	FWZ301	0.000	
112	 H47	-21.443	34.019	-3.781	 H	1	FWZ301	0.000	
113	 H48	-24.517	34.159	-0.483	 H	1	FWZ301	0.000	
114	 H49	-25.180	30.078	-2.990	 H	1	FWZ301	0.000	
115	 H50	-26.512	29.364	-2.158	 H	1	FWZ301	0.000	
116	 H51	-27.665	34.241	4.813	 H	1	FWZ301	0.000	
117	 H52	-26.235	36.257	4.910	 H	1	FWZ301	0.000	
118	 H53	-24.758	36.817	3.005	 H	1	FWZ301	0.000	
119	 H54	-24.610	35.363	1.087	 H	1	FWZ301	0.000	
120	 H55	-27.742	31.956	2.163	 H	1	FWZ301	0.000	
121	 H56	-17.454	31.053	-4.702	 H	1	FWZ301	0.000	
122	 H57	-19.232	32.741	-4.798	 H	1	FWZ301	0.000	
123	 H58	-21.721	29.995	-6.946	 H	1	FWZ301	0.000	
124	 H59	-19.958	28.303	-6.833	 H	1	FWZ301	0.000	
@<TRIPOS>BOND
1 1 2 1
2 1 31 1
3 1 67 1
4 2 3 1
5 2 83 1
6 2 4 1
7 4 8 1
8 4 9 2
9 3 5 1
10 5 68 1
11 5 69 1
12 5 70 1
13 3 6 1
14 6 71 1
15 6 72 1
16 6 73 1
17 3 7 1
18 7 74 1
19 7 75 1
20 7 76 1
21 8 10 1
22 10 11 1
23 10 15 1
24 10 77 1
25 11 12 1
26 11 84 1
27 11 85 1
28 12 14 1
29 12 86 1
30 8 13 1
31 12 13 1
32 13 78 1
33 13 79 1
34 14 87 1
35 15 16 2
36 15 17 1
37 17 18 1
38 17 88 1
39 18 19 1
40 18 89 1
41 18 90 1
42 19 20 ar
43 20 21 ar
44 20 36 1
45 21 22 ar
46 21 80 1
47 22 23 ar
48 22 25 1
49 23 91 1
50 19 24 ar
51 23 24 ar
52 24 81 1
53 25 29 ar
54 25 26 ar
55 26 27 ar
56 26 30 1
57 27 28 ar
58 28 29 ar
59 28 82 1
60 30 92 1
61 30 93 1
62 30 94 1
63 31 32 1
64 31 33 2
65 32 34 1
66 32 35 1
67 32 66 1
68 34 35 1
69 34 95 1
70 34 96 1
71 35 97 1
72 35 98 1
73 36 37 1
74 37 38 1
75 37 99 1
76 37 100 1
77 38 60 1
78 38 101 1
79 38 102 1
80 39 40 1
81 39 63 1
82 39 103 1
83 39 104 1
84 40 41 1
85 40 45 1
86 41 42 1
87 41 105 1
88 41 106 1
89 42 43 1
90 42 107 1
91 42 108 1
92 43 44 1
93 43 46 1
94 44 45 1
95 44 109 1
96 44 110 1
97 45 111 1
98 45 112 1
99 46 47 ar
100 46 51 ar
101 47 48 ar
102 47 113 1
103 48 49 ar
104 48 53 1
105 49 50 ar
106 50 51 ar
107 51 52 1
108 52 114 1
109 52 115 1
110 53 54 ar
111 53 58 ar
112 54 55 ar
113 54 59 1
114 55 56 ar
115 55 116 1
116 56 57 ar
117 56 117 1
118 57 58 ar
119 57 118 1
120 58 119 1
121 59 120 1
122 60 61 ar
123 60 65 ar
124 61 62 ar
125 61 121 1
126 62 63 ar
127 62 122 1
128 63 64 ar
129 64 65 ar
130 64 123 1
131 65 124 1
@<TRIPOS>SUBSTRUCTURE
1	FWZ301	1	GROUP	1 F	FWZ
