@<TRIPOS>MOLECULE
LIG
  125   132     1     0     0
SMALL
bcc


@<TRIPOS>ATOM
      1 N          -28.0270    26.9840    -5.9650 ns         1 LIG      -0.551900
      2 N1         -25.2270    25.7550    -7.7290 n          1 LIG      -0.447800
      3 N2         -22.2710    24.7970    -5.7970 ns         1 LIG      -0.544900
      4 N3         -14.1000    23.0090    -8.4770 nc         1 LIG      -0.622000
      5 N4         -22.5780    32.4860    -4.7510 n3         1 LIG      -0.801600
      6 N5         -24.2490    32.5490    -2.7010 nh         1 LIG      -0.687000
      7 N6         -26.7520    31.9160     0.6530 nb         1 LIG      -0.324000
      8 N7         -26.6990    31.0150    -0.3450 nb         1 LIG      -0.240000
      9 N8         -25.8530    30.1320    -2.2340 nz         1 LIG      -0.785300
     10 C          -27.0790    27.2740    -7.0290 c3         1 LIG       0.058700
     11 C1         -26.7880    28.8030    -7.1340 c3         1 LIG      -0.049000
     12 C2         -25.8470    26.4110    -6.7240 c          1 LIG       0.682100
     13 C3         -25.6610    29.0920    -8.1360 c3         1 LIG      -0.096433
     14 C4         -28.0580    29.5160    -7.6140 c3         1 LIG      -0.096433
     15 C5         -26.3870    29.3950    -5.7760 c3         1 LIG      -0.096433
     16 C6         -24.1050    24.8700    -7.3810 c5         1 LIG       0.034700
     17 C7         -23.6170    24.3420    -8.7410 c5         1 LIG      -0.136400
     18 C8         -24.8220    24.4940    -9.6570 c5         1 LIG       0.141100
     19 C9         -25.4700    25.7870    -9.1740 c5         1 LIG       0.034000
     20 C10        -22.9540    25.5570    -6.6540 c          1 LIG       0.666100
     21 C11        -21.0390    25.2400    -5.1640 c3         1 LIG       0.135300
     22 C12        -19.8200    24.8920    -5.9860 ca         1 LIG      -0.144300
     23 C13        -18.6270    25.6030    -5.8120 ca         1 LIG       0.133100
     24 C14        -17.4790    25.2450    -6.5120 ca         1 LIG      -0.184000
     25 C15        -17.5040    24.1790    -7.4080 ca         1 LIG       0.050000
     26 C16        -18.7000    23.5030    -7.6180 ca         1 LIG      -0.150000
     27 C17        -19.8340    23.8490    -6.9100 ca         1 LIG      -0.099000
     28 C18        -16.2630    23.7330    -8.0750 cd         1 LIG      -0.177400
     29 C19        -15.0330    23.4250    -7.5510 cc         1 LIG       0.374600
     30 C20        -14.6000    23.0060    -9.6700 cd         1 LIG       0.385300
     31 C21        -14.6240    23.5030    -6.1160 c3         1 LIG      -0.133400
     32 C22        -29.2570    26.4720    -6.0600 c          1 LIG       0.683100
     33 C23        -30.0110    26.2870    -4.7550 cx         1 LIG       0.010300
     34 C24        -31.4440    26.6330    -4.7030 cx         1 LIG      -0.105900
     35 C25        -30.9890    25.2220    -4.4560 cx         1 LIG      -0.105900
     36 C26        -17.5720    27.5000    -4.6560 c3         1 LIG       0.131400
     37 C27        -17.4510    28.5350    -5.7600 c3         1 LIG      -0.074100
     38 C28        -21.7010    32.5280    -5.9320 c3         1 LIG       0.256100
     39 C29        -23.9830    32.2450    -5.1300 c6         1 LIG       0.203300
     40 C30        -24.9370    32.6170    -3.9930 c6         1 LIG       0.191800
     41 C31        -23.2510    33.6230    -2.6580 c6         1 LIG       0.191800
     42 C32        -22.4720    33.7210    -3.9790 c6         1 LIG       0.203300
     43 C33        -25.0680    32.3430    -1.5170 ca         1 LIG       0.137300
     44 C34        -25.1290    33.2610    -0.4660 ca         1 LIG      -0.247300
     45 C35        -25.9810    33.0100     0.6180 cp         1 LIG       0.496800
     46 C36        -25.8890    31.1830    -1.3980 ca         1 LIG       0.321200
     47 C37        -26.0730    33.9080     1.8060 cp         1 LIG      -0.279500
     48 C38        -26.9360    33.6280     2.8830 ca         1 LIG       0.200100
     49 C39        -26.9950    34.4800     3.9880 ca         1 LIG      -0.163000
     50 C40        -26.2040    35.6150     4.0330 ca         1 LIG      -0.057000
     51 C41        -25.3680    35.9150     2.9790 ca         1 LIG      -0.163000
     52 C42        -25.2970    35.0730     1.8790 ca         1 LIG      -0.073000
     53 C43        -18.5690    29.5540    -5.7680 ca         1 LIG      -0.075300
     54 C44        -18.3930    30.8120    -5.1980 ca         1 LIG      -0.121500
     55 C45        -19.3960    31.7660    -5.2520 ca         1 LIG      -0.116000
     56 C46        -20.6070    31.4930    -5.8780 ca         1 LIG      -0.097300
     57 C47        -20.7850    30.2380    -6.4460 ca         1 LIG      -0.116000
     58 C48        -19.7830    29.2820    -6.3890 ca         1 LIG      -0.121500
     59 O          -25.4720    26.3070    -5.5650 o          1 LIG      -0.699100
     60 O1         -25.7170    23.4040    -9.4510 oh         1 LIG      -0.573800
     61 O2         -22.6940    26.7330    -6.8700 o          1 LIG      -0.679100
     62 O3         -29.8020    26.1360    -7.1000 o          1 LIG      -0.612100
     63 O4         -18.7090    26.6540    -4.9200 os         1 LIG      -0.337900
     64 O5         -27.7810    32.5630     2.9470 oh         1 LIG      -0.483100
     65 F          -29.2530    26.7170    -3.6450 f          1 LIG      -0.201300
     66 H01        -24.5190    34.1640    -0.4890 ha         1 LIG       0.181000
     67 H02        -24.9400    30.0740    -2.6610 hn         1 LIG       0.480800
     68 H03        -26.0370    29.2840    -1.7180 hn         1 LIG       0.480800
     69 H04        -26.5530    30.2480    -2.9520 hn         1 LIG       0.480800
     70 H05        -14.0150    22.7090   -10.5400 h5         1 LIG       0.063100
     71 S          -16.2420    23.4980    -9.8020 ss         1 LIG      -0.084300
     72 H          -27.7210    27.1930    -5.0530 hn         1 LIG       0.331500
     73 H1         -27.4580    27.0280    -7.9990 h1         1 LIG       0.101700
     74 H2         -25.9210    28.6870    -9.0920 hc         1 LIG       0.044922
     75 H3         -24.7540    28.6410    -7.7920 hc         1 LIG       0.044922
     76 H4         -25.5230    30.1500    -8.2220 hc         1 LIG       0.044922
     77 H5         -28.3550    29.1170    -8.5610 hc         1 LIG       0.044922
     78 H6         -27.8630    30.5630    -7.7140 hc         1 LIG       0.044922
     79 H7         -28.8420    29.3650    -6.9020 hc         1 LIG       0.044922
     80 H8         -25.5010    28.9100    -5.4230 hc         1 LIG       0.044922
     81 H9         -27.1800    29.2450    -5.0730 hc         1 LIG       0.044922
     82 H10        -26.2010    30.4430    -5.8850 hc         1 LIG       0.044922
     83 H11        -24.4340    24.1160    -6.6960 h1         1 LIG       0.085700
     84 H12        -23.3250    23.3150    -8.6660 hc         1 LIG       0.076200
     85 H13        -22.7600    24.8710    -9.1010 hc         1 LIG       0.076200
     86 H14        -24.5670    24.5100   -10.6960 h1         1 LIG       0.104700
     87 H15        -25.0070    26.6410    -9.6230 h1         1 LIG       0.084700
     88 H16        -26.5070    25.8600    -9.4270 h1         1 LIG       0.084700
     89 H17        -25.9670    23.3630    -8.5150 ho         1 LIG       0.410000
     90 H18        -22.6150    23.8990    -5.5840 hn         1 LIG       0.316500
     91 H19        -20.9550    24.7700    -4.2060 h1         1 LIG       0.081200
     92 H20        -21.0810    26.3050    -5.0720 h1         1 LIG       0.081200
     93 H21        -16.6040    25.7720    -6.3660 ha         1 LIG       0.153000
     94 H22        -18.7410    22.7370    -8.3080 ha         1 LIG       0.147000
     95 H23        -20.7090    23.3250    -7.0680 ha         1 LIG       0.122000
     96 H24        -15.4520    23.8390    -5.5270 hc         1 LIG       0.057367
     97 H25        -13.8110    24.1910    -6.0140 hc         1 LIG       0.057367
     98 H26        -14.3170    22.5350    -5.7800 hc         1 LIG       0.057367
     99 H27        -31.9700    26.8780    -5.6020 hc         1 LIG       0.099700
    100 H28        -32.0350    27.3460    -4.1660 hc         1 LIG       0.099700
    101 H29        -31.0440    24.8050    -3.4720 hc         1 LIG       0.099700
    102 H30        -31.2210    24.2640    -4.8730 hc         1 LIG       0.099700
    103 H31        -16.6830    26.9050    -4.6250 h1         1 LIG       0.065700
    104 H32        -17.7020    27.9930    -3.7150 h1         1 LIG       0.065700
    105 H33        -17.4520    28.0260    -6.7010 hc         1 LIG       0.068200
    106 H34        -16.5420    29.0720    -5.5850 hc         1 LIG       0.068200
    107 H35        -21.2530    33.4980    -5.9920 h1         1 LIG       0.050700
    108 H36        -22.3040    32.3180    -6.7910 h1         1 LIG       0.050700
    109 H37        -24.1080    31.2090    -5.3650 h1         1 LIG       0.044450
    110 H38        -24.2140    32.8560    -5.9780 h1         1 LIG       0.044450
    111 H39        -25.7620    31.9350    -3.9890 h1         1 LIG       0.047200
    112 H40        -25.2850    33.6170    -4.1470 h1         1 LIG       0.047200
    113 H41        -22.5630    33.4270    -1.8620 h1         1 LIG       0.047200
    114 H42        -23.7620    34.5500    -2.5000 h1         1 LIG       0.047200
    115 H43        -22.8680    34.5290    -4.5580 h1         1 LIG       0.044450
    116 H44        -21.4400    33.8890    -3.7510 h1         1 LIG       0.044450
    117 H45        -27.6290    34.2630     4.7720 ha         1 LIG       0.168000
    118 H46        -26.2400    36.2370     4.8560 ha         1 LIG       0.153000
    119 H47        -24.7920    36.7710     3.0080 ha         1 LIG       0.150000
    120 H48        -24.6620    35.3080     1.1010 ha         1 LIG       0.131000
    121 H49        -27.8050    31.9410     2.2460 ho         1 LIG       0.442000
    122 H50        -17.5020    31.0370    -4.7280 ha         1 LIG       0.138500
    123 H51        -19.2420    32.6910    -4.8220 ha         1 LIG       0.130500
    124 H52        -21.6760    30.0140    -6.9170 ha         1 LIG       0.130500
    125 H53        -19.9400    28.3550    -6.8140 ha         1 LIG       0.138500
@<TRIPOS>BOND
     1     1    10 1   
     2     1    32 1   
     3     1    72 1   
     4     2    16 1   
     5     2    19 1   
     6     3    21 1   
     7     3    90 1   
     8     4    30 2   
     9     5    39 1   
    10     5    42 1   
    11     6    41 1   
    12     6    43 1   
    13     7     8 ar  
    14     8    46 ar  
    15     9    67 1   
    16     9    68 1   
    17     9    69 1   
    18    10    11 1   
    19    10    12 1   
    20    10    73 1   
    21    11    13 1   
    22    11    14 1   
    23    11    15 1   
    24     2    12 1   
    25    12    59 2   
    26    13    74 1   
    27    13    75 1   
    28    13    76 1   
    29    14    77 1   
    30    14    78 1   
    31    14    79 1   
    32    15    80 1   
    33    15    81 1   
    34    15    82 1   
    35    16    17 1   
    36    16    20 1   
    37    16    83 1   
    38    17    18 1   
    39    17    84 1   
    40    17    85 1   
    41    18    19 1   
    42    18    60 1   
    43    18    86 1   
    44    19    87 1   
    45    19    88 1   
    46     3    20 1   
    47    20    61 2   
    48    21    22 1   
    49    21    91 1   
    50    21    92 1   
    51    22    23 ar  
    52    22    27 ar  
    53    23    24 ar  
    54    23    63 1   
    55    24    25 ar  
    56    24    93 1   
    57    25    26 ar  
    58    25    28 1   
    59    26    27 ar  
    60    26    94 1   
    61    27    95 1   
    62    28    29 2   
    63    28    71 1   
    64     4    29 1   
    65    29    31 1   
    66    30    70 1   
    67    30    71 1   
    68    31    96 1   
    69    31    97 1   
    70    31    98 1   
    71    32    33 1   
    72    32    62 2   
    73    33    34 1   
    74    33    35 1   
    75    33    65 1   
    76    34    35 1   
    77    34    99 1   
    78    34   100 1   
    79    35   101 1   
    80    35   102 1   
    81    36    37 1   
    82    36   103 1   
    83    36   104 1   
    84    37    53 1   
    85    37   105 1   
    86    37   106 1   
    87     5    38 1   
    88    38    56 1   
    89    38   107 1   
    90    38   108 1   
    91    39    40 1   
    92    39   109 1   
    93    39   110 1   
    94     6    40 1   
    95    40   111 1   
    96    40   112 1   
    97    41    42 1   
    98    41   113 1   
    99    41   114 1   
   100    42   115 1   
   101    42   116 1   
   102    43    44 ar  
   103    43    46 ar  
   104    44    45 ar  
   105    44    66 1   
   106     7    45 ar  
   107    45    47 1   
   108     9    46 1   
   109    47    48 ar  
   110    47    52 ar  
   111    48    49 ar  
   112    48    64 1   
   113    49    50 ar  
   114    49   117 1   
   115    50    51 ar  
   116    50   118 1   
   117    51    52 ar  
   118    51   119 1   
   119    52   120 1   
   120    53    54 ar  
   121    53    58 ar  
   122    54    55 ar  
   123    54   122 1   
   124    55    56 ar  
   125    55   123 1   
   126    56    57 ar  
   127    57    58 ar  
   128    57   124 1   
   129    58   125 1   
   130    60    89 1   
   131    36    63 1   
   132    64   121 1   
@<TRIPOS>SUBSTRUCTURE
     1 LIG         1 TEMP              0 ****  ****    0 ROOT
