@<TRIPOS>MOLECULE
../6mg5_L.pdb
 34 35 0 0 0
SMALL
GASTEIGER

@<TRIPOS>ATOM
      1  O1        -5.9830  -20.3840   37.3440 O.2   431  LIG431     -0.2452
      2  C2        -4.9740  -20.1360   36.7150 C.ar  431  LIG431      0.3375
      3  O3        -3.8810  -21.0240   36.8690 O.2   431  LIG431     -0.4221
      4  C4        -2.6970  -20.8520   36.2190 C.ar  431  LIG431      0.1411
      5  C5        -4.7530  -19.0210   35.8090 C.ar  431  LIG431      0.0265
      6  C6        -3.5710  -18.8180   35.1340 C.ar  431  LIG431     -0.0330
      7  C7        -3.3930  -17.6480   34.2050 C.3   431  LIG431     -0.0388
      8  C8        -2.4890  -19.7580   35.3330 C.ar  431  LIG431      0.0206
      9  C9        -1.2200  -19.6850   34.7060 C.ar  431  LIG431     -0.0491
     10  C10       -0.2220  -20.6250   34.9380 C.ar  431  LIG431     -0.0399
     11  C11       -0.4340  -21.7180   35.8410 C.ar  431  LIG431      0.0332
     12  C12       -1.7070  -21.8100   36.4640 C.ar  431  LIG431      0.0024
     13  N13        0.5670  -22.6350   36.1080 N.pl3 431  LIG431     -0.3303
     14  C14        1.8350  -22.5940   35.3830 C.3   431  LIG431      0.0093
     15  C15        1.7860  -23.1790   33.9640 C.3   431  LIG431     -0.0494
     16  C16        0.3200  -23.7710   36.9920 C.3   431  LIG431      0.0093
     17  C17       -0.4130  -24.9510   36.3380 C.3   431  LIG431     -0.0494
     18 H          -5.5214  -18.3474   35.6646 H     431  LIG431      0.0692
     19 H          -2.4095  -17.6731   33.7842 H     431  LIG431      0.0278
     20 H          -3.5247  -16.7366   34.7499 H     431  LIG431      0.0278
     21 H          -4.1182  -17.7022   33.4201 H     431  LIG431      0.0278
     22 H          -1.0301  -18.9073   34.0547 H     431  LIG431      0.0625
     23 H           0.6845  -20.5345   34.4531 H     431  LIG431      0.0636
     24 H          -1.9044  -22.5937   37.1058 H     431  LIG431      0.0673
     25 H           2.1442  -21.5722   35.3111 H     431  LIG431      0.0461
     26 H           2.5177  -23.2043   35.9365 H     431  LIG431      0.0461
     27 H           1.1133  -22.6028   33.3637 H     431  LIG431      0.0245
     28 H           1.4461  -24.1926   34.0076 H     431  LIG431      0.0245
     29 H           2.7644  -23.1492   33.5320 H     431  LIG431      0.0245
     30 H          -0.2701  -23.4287   37.8163 H     431  LIG431      0.0461
     31 H           1.2814  -24.1391   37.2837 H     431  LIG431      0.0461
     32 H          -1.3868  -24.6368   36.0252 H     431  LIG431      0.0245
     33 H          -0.5056  -25.7492   37.0446 H     431  LIG431      0.0245
     34 H           0.1426  -25.2894   35.4885 H     431  LIG431      0.0245
@<TRIPOS>BOND
     1    15    14    1
     2     7     6    1
     3     9    10   ar
     4     9     8   ar
     5    10    11   ar
     6     6     8   ar
     7     6     5   ar
     8     8     4   ar
     9    14    13    1
    10     5     2   ar
    11    11    13    1
    12    11    12   ar
    13    13    16    1
    14     4    12   ar
    15     4     3   ar
    16    17    16    1
    17     2     3   ar
    18     2     1    2
    19     5    18    1
    20     7    19    1
    21     7    20    1
    22     7    21    1
    23     9    22    1
    24    10    23    1
    25    12    24    1
    26    14    25    1
    27    14    26    1
    28    15    27    1
    29    15    28    1
    30    15    29    1
    31    16    30    1
    32    16    31    1
    33    17    32    1
    34    17    33    1
    35    17    34    1
