# created with PyMOL 2.5.5
@<TRIPOS>MOLECULE
../6mg5_L.pdb
34 35 1                 
SMALL
USER_CHARGES
@<TRIPOS>ATOM
1	  O1	-5.983	-20.384	37.344	O.co2	1	LIG431	-0.245	
2	  C2	-4.974	-20.136	36.715	C.2	1	LIG431	0.338	
3	  O3	-3.881	-21.024	36.869	O.3	1	LIG431	-0.422	
4	  C4	-2.697	-20.852	36.219	C.2	1	LIG431	0.141	
5	  C5	-4.753	-19.021	35.809	C.2	1	LIG431	0.026	
6	  C6	-3.571	-18.818	35.134	C.2	1	LIG431	-0.033	
7	  C7	-3.393	-17.648	34.205	C.3	1	LIG431	-0.039	
8	  C8	-2.489	-19.758	35.333	C.2	1	LIG431	0.021	
9	  C9	-1.220	-19.685	34.706	C.2	1	LIG431	-0.049	
10	 C10	-0.222	-20.625	34.938	C.2	1	LIG431	-0.040	
11	 C11	-0.434	-21.718	35.841	C.2	1	LIG431	0.033	
12	 C12	-1.707	-21.810	36.464	C.2	1	LIG431	0.002	
13	 N13	0.567	-22.635	36.108	N.pl3	1	LIG431	-0.330	
14	 C14	1.835	-22.594	35.383	C.3	1	LIG431	0.009	
15	 C15	1.786	-23.179	33.964	C.3	1	LIG431	-0.049	
16	 C16	0.320	-23.771	36.992	C.3	1	LIG431	0.009	
17	 C17	-0.413	-24.951	36.338	C.3	1	LIG431	-0.049	
18	 H01	-5.565	-18.310	35.656	 H	1	LIG431	0.000	
19	 H02	-1.019	-18.864	34.018	 H	1	LIG431	0.000	
20	 H03	0.735	-20.529	34.426	 H	1	LIG431	0.000	
21	 H04	-1.916	-22.638	37.142	 H	1	LIG431	0.000	
22	   H	-2.409	-17.673	33.784	 H	1	LIG431	0.028	
23	   H	-3.525	-16.737	34.750	 H	1	LIG431	0.028	
24	   H	-4.118	-17.702	33.420	 H	1	LIG431	0.028	
25	   H	2.144	-21.572	35.311	 H	1	LIG431	0.046	
26	   H	2.518	-23.204	35.937	 H	1	LIG431	0.046	
27	   H	1.113	-22.603	33.364	 H	1	LIG431	0.024	
28	   H	1.446	-24.193	34.008	 H	1	LIG431	0.024	
29	   H	2.764	-23.149	33.532	 H	1	LIG431	0.024	
30	   H	-0.270	-23.429	37.816	 H	1	LIG431	0.046	
31	   H	1.281	-24.139	37.284	 H	1	LIG431	0.046	
32	   H	-1.387	-24.637	36.025	 H	1	LIG431	0.024	
33	   H	-0.506	-25.749	37.045	 H	1	LIG431	0.024	
34	   H	0.143	-25.289	35.488	 H	1	LIG431	0.024	
@<TRIPOS>BOND
1 1 2 2
2 2 3 1
3 3 4 1
4 4 12 1
5 2 5 1
6 5 18 1
7 5 6 2
8 6 8 1
9 6 7 1
10 7 22 1
11 7 23 1
12 7 24 1
13 4 8 2
14 8 9 1
15 9 10 2
16 9 19 1
17 10 11 1
18 10 20 1
19 11 12 2
20 11 13 1
21 12 21 1
22 13 16 1
23 13 14 1
24 14 25 1
25 14 26 1
26 14 15 1
27 15 27 1
28 15 28 1
29 15 29 1
30 16 30 1
31 16 31 1
32 16 17 1
33 17 32 1
34 17 33 1
35 17 34 1
@<TRIPOS>SUBSTRUCTURE
1	LIG431	1	GROUP	1 ****	LIG
