@<TRIPOS>MOLECULE
LIG
   34    35     1     0     0
SMALL
bcc


@<TRIPOS>ATOM
      1 O1          -5.9830   -20.3840    37.3440 o          1 LIG      -0.576500
      2 C2          -4.9740   -20.1360    36.7150 c          1 LIG       0.725800
      3 O3          -3.8810   -21.0240    36.8690 os         1 LIG      -0.330200
      4 C4          -2.6970   -20.8520    36.2190 ca         1 LIG       0.195100
      5 C5          -4.7530   -19.0210    35.8090 cc         1 LIG      -0.283200
      6 C6          -3.5710   -18.8180    35.1340 cd         1 LIG       0.064600
      7 C7          -3.3930   -17.6480    34.2050 c3         1 LIG      -0.072900
      8 C8          -2.4890   -19.7580    35.3330 ca         1 LIG      -0.201800
      9 C9          -1.2200   -19.6850    34.7060 ca         1 LIG      -0.039000
     10 C10         -0.2220   -20.6250    34.9380 ca         1 LIG      -0.220000
     11 C11         -0.4340   -21.7180    35.8410 ca         1 LIG       0.229600
     12 C12         -1.7070   -21.8100    36.4640 ca         1 LIG      -0.237000
     13 N13          0.5670   -22.6350    36.1080 nh         1 LIG      -0.659000
     14 C14          1.8350   -22.5940    35.3830 c3         1 LIG       0.202300
     15 C15          1.7860   -23.1790    33.9640 c3         1 LIG      -0.129600
     16 C16          0.3200   -23.7710    36.9920 c3         1 LIG       0.202300
     17 C17         -0.4130   -24.9510    36.3380 c3         1 LIG      -0.129600
     18 H01         -5.5650   -18.3100    35.6560 ha         1 LIG       0.166000
     19 H02         -1.0190   -18.8640    34.0180 ha         1 LIG       0.135000
     20 H03          0.7350   -20.5290    34.4260 ha         1 LIG       0.139000
     21 H04         -1.9160   -22.6380    37.1420 ha         1 LIG       0.161000
     22 H           -2.4090   -17.6730    33.7840 hc         1 LIG       0.056700
     23 H1          -3.5250   -16.7370    34.7500 hc         1 LIG       0.056700
     24 H2          -4.1180   -17.7020    33.4200 hc         1 LIG       0.056700
     25 H3           2.1440   -21.5720    35.3110 h1         1 LIG       0.054200
     26 H4           2.5180   -23.2040    35.9370 h1         1 LIG       0.054200
     27 H5           1.1130   -22.6030    33.3640 hc         1 LIG       0.045200
     28 H6           1.4460   -24.1930    34.0080 hc         1 LIG       0.045200
     29 H7           2.7640   -23.1490    33.5320 hc         1 LIG       0.045200
     30 H8          -0.2700   -23.4290    37.8160 h1         1 LIG       0.054200
     31 H9           1.2810   -24.1390    37.2840 h1         1 LIG       0.054200
     32 H10         -1.3870   -24.6370    36.0250 hc         1 LIG       0.045200
     33 H11         -0.5060   -25.7490    37.0450 hc         1 LIG       0.045200
     34 H12          0.1430   -25.2890    35.4880 hc         1 LIG       0.045200
@<TRIPOS>BOND
     1     1     2 2   
     2     2     3 1   
     3     3     4 1   
     4     4    12 ar  
     5     2     5 1   
     6     5    18 1   
     7     5     6 2   
     8     6     8 1   
     9     6     7 1   
    10     7    22 1   
    11     7    23 1   
    12     7    24 1   
    13     4     8 ar  
    14     8     9 ar  
    15     9    10 ar  
    16     9    19 1   
    17    10    11 ar  
    18    10    20 1   
    19    11    12 ar  
    20    11    13 1   
    21    12    21 1   
    22    13    16 1   
    23    13    14 1   
    24    14    25 1   
    25    14    26 1   
    26    14    15 1   
    27    15    27 1   
    28    15    28 1   
    29    15    29 1   
    30    16    30 1   
    31    16    31 1   
    32    16    17 1   
    33    17    32 1   
    34    17    33 1   
    35    17    34 1   
@<TRIPOS>SUBSTRUCTURE
     1 LIG         1 TEMP              0 ****  ****    0 ROOT
