@<TRIPOS>MOLECULE
LIG
   79    82     1     0     0
SMALL
bcc


@<TRIPOS>ATOM
      1 CAB          6.2000    82.8410   123.2920 c3         1 LIG      -0.044700
      2 CAC          5.3540    81.8900   122.4150 c5         1 LIG      -0.024500
      3 CAD          5.9320    81.4330   121.2610 c2         1 LIG      -0.093400
      4 CAE          6.0720    82.0540   119.9120 c2         1 LIG      -0.165200
      5 CAF          5.8590    83.5300   119.5990 c5         1 LIG       0.028400
      6 CAG          5.2440    84.3270   120.6870 c2         1 LIG      -0.129400
      7 CAH          5.9930    85.0290   121.8770 c3         1 LIG       0.170300
      8 CAI          5.7290    84.3100   123.2350 c3         1 LIG       0.125100
      9 CAJ          4.7820    83.5880   118.4500 c5         1 LIG      -0.075400
     10 CAK          3.4090    83.5830   119.2480 c5         1 LIG      -0.051200
     11 CAL          3.7140    84.3180   120.4990 c2         1 LIG      -0.086400
     12 CAM          5.1090    80.5140   123.2770 c5         1 LIG      -0.079400
     13 CAN          6.2800    79.5310   122.7340 c5         1 LIG      -0.071400
     14 CAO          6.3240    79.7810   121.4000 c5         1 LIG      -0.037500
     15 CAP          7.7030    79.5780   120.7940 c3         1 LIG       0.134400
     16 CAQ          7.7070    82.7810   122.9310 c3         1 LIG      -0.090100
     17 CAT          2.6900    85.0240   121.4360 c3         1 LIG      -0.024500
     18 CAU          1.7840    83.9890   122.1390 c3         1 LIG      -0.087100
     19 CAV          1.8390    86.0550   120.6090 c3         1 LIG      -0.087100
     20 CAW          7.1780    84.1470   119.1160 c3         1 LIG      -0.085100
     21 OAA          7.9820    78.1890   120.8060 os         1 LIG      -0.425600
     22 OAR          6.4040    85.0300   124.2440 oh         1 LIG      -0.606800
     23 CBI          9.3430    77.7840   120.5980 c3         1 LIG       0.116700
     24 C1           6.4970    87.2970   121.6080 c6         1 LIG       0.289900
     25 O1           5.5400    86.3520   121.9780 os         1 LIG      -0.469600
     26 C2           6.0140    88.6690   122.0440 c6         1 LIG       0.101100
     27 O2           5.8580    88.6570   123.4630 oh         1 LIG      -0.578800
     28 C3           4.7370    89.0080   121.3870 c6         1 LIG       0.076100
     29 O3           4.3280    90.3590   121.7830 oh         1 LIG      -0.573800
     30 C4           4.9020    88.9590   119.9090 c6         1 LIG       0.079100
     31 O4           3.6260    89.1570   119.2920 oh         1 LIG      -0.591800
     32 C5           5.4700    87.6190   119.4370 c6         1 LIG       0.076100
     33 O5           6.6930    87.2760   120.1430 os         1 LIG      -0.422600
     34 C6           5.7720    87.6750   117.9720 c3         1 LIG       0.142400
     35 O6           6.7670    88.6570   117.7550 oh         1 LIG      -0.595800
     36 H01          6.3490    81.4000   119.0850 ha         1 LIG       0.121000
     37 H03          4.4790    82.4830   122.1490 hc         1 LIG       0.064700
     38 H04          6.0550    82.4790   124.3100 hc         1 LIG       0.062700
     39 HAH          6.9470    85.0270   121.6970 h1         1 LIG       0.082700
     40 HAI          4.7760    84.3350   123.4160 h1         1 LIG       0.042700
     41 HAJ          4.8500    82.8070   117.8780 hc         1 LIG       0.050700
     42 HAJA         4.8770    84.4060   117.9360 hc         1 LIG       0.050700
     43 HAK          3.1380    82.6740   119.4470 hc         1 LIG       0.053700
     44 HAKA         2.7230    84.0460   118.7420 hc         1 LIG       0.053700
     45 HAM          4.2330    80.1430   123.0860 hc         1 LIG       0.044700
     46 HAMA         5.2170    80.6830   124.2260 hc         1 LIG       0.044700
     47 HAN          7.1270    79.7550   123.1480 hc         1 LIG       0.048700
     48 HANA         6.0480    78.6030   122.9000 hc         1 LIG       0.048700
     49 HAO          5.6660    79.2400   120.9360 hc         1 LIG       0.073700
     50 HAP          8.3670    80.0500   121.3220 h1         1 LIG       0.031700
     51 HAPA         7.7140    79.9060   119.8820 h1         1 LIG       0.031700
     52 HAQ          8.1620    83.5420   123.3250 hc         1 LIG       0.041367
     53 HAQA         8.0910    81.9600   123.2790 hc         1 LIG       0.041367
     54 HAQB         7.8140    82.8050   121.9680 hc         1 LIG       0.041367
     55 HAT          3.1820    85.5100   122.1150 hc         1 LIG       0.057700
     56 HAU          2.3060    83.2050   122.3670 hc         1 LIG       0.036367
     57 HAUA         1.0620    83.7350   121.5440 hc         1 LIG       0.036367
     58 HAUB         1.4160    84.3800   122.9470 hc         1 LIG       0.036367
     59 HAV          1.4050    86.6740   121.2160 hc         1 LIG       0.036367
     60 HAVA         1.1680    85.5810   120.0950 hc         1 LIG       0.036367
     61 HAVB         2.4200    86.5460   120.0070 hc         1 LIG       0.036367
     62 HAW          7.7880    84.2350   119.8640 hc         1 LIG       0.039367
     63 HAWA         7.0050    85.0220   118.7350 hc         1 LIG       0.039367
     64 HAWB         7.5740    83.5730   118.4420 hc         1 LIG       0.039367
     65 HBI          9.8500    77.9210   121.4140 h1         1 LIG       0.032367
     66 HBIA         9.3670    76.8460   120.3550 h1         1 LIG       0.032367
     67 HBIB         9.7310    78.3150   119.8840 h1         1 LIG       0.032367
     68 HO2          5.0320    88.6040   123.6570 ho         1 LIG       0.415000
     69 HO3          4.8410    90.6390   122.4010 ho         1 LIG       0.409000
     70 HO4          3.0130    88.9120   119.8260 ho         1 LIG       0.412000
     71 HO6          6.4590    89.4230   117.9600 ho         1 LIG       0.415000
     72 HOAR         5.8460    85.5050   124.6750 ho         1 LIG       0.415000
     73 H1           7.3390    87.0980   122.0490 h2         1 LIG       0.112700
     74 H2           6.6800    89.3300   121.7990 h1         1 LIG       0.094700
     75 H3           4.0580    88.3690   121.6560 h1         1 LIG       0.090700
     76 H4           5.5030    89.6690   119.6350 h1         1 LIG       0.098700
     77 H5           4.8110    86.9260   119.6000 h1         1 LIG       0.058700
     78 H6           6.0940    86.8110   117.6720 h1         1 LIG       0.058700
     79 H6A          4.9690    87.9120   117.4830 h1         1 LIG       0.058700
@<TRIPOS>BOND
     1     1     2 1   
     2     1     8 1   
     3     1    16 1   
     4     1    38 1   
     5     2     3 1   
     6     2    12 1   
     7     2    37 1   
     8     3     4 2   
     9     3    14 1   
    10     4     5 1   
    11     4    36 1   
    12     5     6 1   
    13     5     9 1   
    14     5    20 1   
    15     6     7 1   
    16     6    11 2   
    17     7     8 1   
    18     7    25 1   
    19     7    39 1   
    20     8    22 1   
    21     8    40 1   
    22     9    10 1   
    23     9    41 1   
    24     9    42 1   
    25    10    11 1   
    26    10    43 1   
    27    10    44 1   
    28    11    17 1   
    29    12    13 1   
    30    12    45 1   
    31    12    46 1   
    32    13    14 1   
    33    13    47 1   
    34    13    48 1   
    35    14    15 1   
    36    14    49 1   
    37    15    21 1   
    38    15    50 1   
    39    15    51 1   
    40    16    52 1   
    41    16    53 1   
    42    16    54 1   
    43    17    18 1   
    44    17    19 1   
    45    17    55 1   
    46    18    56 1   
    47    18    57 1   
    48    18    58 1   
    49    19    59 1   
    50    19    60 1   
    51    19    61 1   
    52    20    62 1   
    53    20    63 1   
    54    20    64 1   
    55    21    23 1   
    56    22    72 1   
    57    23    65 1   
    58    23    66 1   
    59    23    67 1   
    60    24    25 1   
    61    24    26 1   
    62    24    33 1   
    63    24    73 1   
    64    26    27 1   
    65    26    28 1   
    66    26    74 1   
    67    27    68 1   
    68    28    29 1   
    69    28    30 1   
    70    28    75 1   
    71    29    69 1   
    72    30    31 1   
    73    30    32 1   
    74    30    76 1   
    75    31    70 1   
    76    32    33 1   
    77    32    34 1   
    78    32    77 1   
    79    34    35 1   
    80    34    78 1   
    81    34    79 1   
    82    35    71 1   
@<TRIPOS>SUBSTRUCTURE
     1 LIG         1 TEMP              0 ****  ****    0 ROOT
