# created with PyMOL 2.5.5
@<TRIPOS>MOLECULE
6nv2_L
79 82 1                 
SMALL
USER_CHARGES
@<TRIPOS>ATOM
1	 CAB	6.200	82.841	123.292	C.3	1	0V4302	0.000	
2	 CAC	5.354	81.890	122.415	C.3	1	0V4302	0.000	
3	 CAD	5.932	81.433	121.261	C.2	1	0V4302	0.000	
4	 CAE	6.072	82.054	119.912	C.2	1	0V4302	0.000	
5	 CAF	5.859	83.530	119.599	C.3	1	0V4302	0.000	
6	 CAG	5.244	84.327	120.687	C.2	1	0V4302	0.000	
7	 CAH	5.993	85.029	121.877	C.3	1	0V4302	0.000	
8	 CAI	5.729	84.310	123.235	C.3	1	0V4302	0.000	
9	 CAJ	4.782	83.588	118.450	C.3	1	0V4302	0.000	
10	 CAK	3.409	83.583	119.248	C.3	1	0V4302	0.000	
11	 CAL	3.714	84.318	120.499	C.2	1	0V4302	0.000	
12	 CAM	5.109	80.514	123.277	C.3	1	0V4302	0.000	
13	 CAN	6.280	79.531	122.734	C.3	1	0V4302	0.000	
14	 CAO	6.324	79.781	121.400	C.3	1	0V4302	0.000	
15	 CAP	7.703	79.578	120.794	C.3	1	0V4302	0.000	
16	 CAQ	7.707	82.781	122.931	C.3	1	0V4302	0.000	
17	 CAT	2.690	85.024	121.436	C.3	1	0V4302	0.000	
18	 CAU	1.784	83.989	122.139	C.3	1	0V4302	0.000	
19	 CAV	1.839	86.055	120.609	C.3	1	0V4302	0.000	
20	 CAW	7.178	84.147	119.116	C.3	1	0V4302	0.000	
21	 OAA	7.982	78.189	120.806	O.3	1	0V4302	0.000	
22	 OAR	6.404	85.030	124.244	O.3	1	0V4302	0.000	
23	 CBI	9.343	77.784	120.598	C.3	1	0V4302	0.000	
24	  C1	6.497	87.297	121.608	C.3	1	0V4302	0.000	
25	  O1	5.540	86.352	121.978	O.3	1	0V4302	0.000	
26	  C2	6.014	88.669	122.044	C.3	1	0V4302	0.000	
27	  O2	5.858	88.657	123.463	O.3	1	0V4302	0.000	
28	  C3	4.737	89.008	121.387	C.3	1	0V4302	0.000	
29	  O3	4.328	90.359	121.783	O.3	1	0V4302	0.000	
30	  C4	4.902	88.959	119.909	C.3	1	0V4302	0.000	
31	  O4	3.626	89.157	119.292	O.3	1	0V4302	0.000	
32	  C5	5.470	87.619	119.437	C.3	1	0V4302	0.000	
33	  O5	6.693	87.276	120.143	O.3	1	0V4302	0.000	
34	  C6	5.772	87.675	117.972	C.3	1	0V4302	0.000	
35	  O6	6.767	88.657	117.755	O.3	1	0V4302	0.000	
36	 H01	6.349	81.400	119.085	 H	1	0V4302	0.000	
37	 H03	4.479	82.483	122.149	 H	1	0V4302	0.000	
38	 H04	6.055	82.479	124.310	 H	1	0V4302	0.000	
39	 HAH	6.947	85.027	121.697	 H	1	0V4302	0.000	
40	 HAI	4.776	84.335	123.416	 H	1	0V4302	0.000	
41	 HAJ	4.850	82.807	117.878	 H	1	0V4302	0.000	
42	HAJA	4.877	84.406	117.936	 H	1	0V4302	0.000	
43	 HAK	3.138	82.674	119.447	 H	1	0V4302	0.000	
44	HAKA	2.723	84.046	118.742	 H	1	0V4302	0.000	
45	 HAM	4.233	80.143	123.086	 H	1	0V4302	0.000	
46	HAMA	5.217	80.683	124.226	 H	1	0V4302	0.000	
47	 HAN	7.127	79.755	123.148	 H	1	0V4302	0.000	
48	HANA	6.048	78.603	122.900	 H	1	0V4302	0.000	
49	 HAO	5.666	79.240	120.936	 H	1	0V4302	0.000	
50	 HAP	8.367	80.050	121.322	 H	1	0V4302	0.000	
51	HAPA	7.714	79.906	119.882	 H	1	0V4302	0.000	
52	 HAQ	8.162	83.542	123.325	 H	1	0V4302	0.000	
53	HAQA	8.091	81.960	123.279	 H	1	0V4302	0.000	
54	HAQB	7.814	82.805	121.968	 H	1	0V4302	0.000	
55	 HAT	3.182	85.510	122.115	 H	1	0V4302	0.000	
56	 HAU	2.306	83.205	122.367	 H	1	0V4302	0.000	
57	HAUA	1.062	83.735	121.544	 H	1	0V4302	0.000	
58	HAUB	1.416	84.380	122.947	 H	1	0V4302	0.000	
59	 HAV	1.405	86.674	121.216	 H	1	0V4302	0.000	
60	HAVA	1.168	85.581	120.095	 H	1	0V4302	0.000	
61	HAVB	2.420	86.546	120.007	 H	1	0V4302	0.000	
62	 HAW	7.788	84.235	119.864	 H	1	0V4302	0.000	
63	HAWA	7.005	85.022	118.735	 H	1	0V4302	0.000	
64	HAWB	7.574	83.573	118.442	 H	1	0V4302	0.000	
65	 HBI	9.850	77.921	121.414	 H	1	0V4302	0.000	
66	HBIA	9.367	76.846	120.355	 H	1	0V4302	0.000	
67	HBIB	9.731	78.315	119.884	 H	1	0V4302	0.000	
68	 HO2	5.032	88.604	123.657	 H	1	0V4302	0.000	
69	 HO3	4.841	90.639	122.401	 H	1	0V4302	0.000	
70	 HO4	3.013	88.912	119.826	 H	1	0V4302	0.000	
71	 HO6	6.459	89.423	117.960	 H	1	0V4302	0.000	
72	HOAR	5.846	85.505	124.675	 H	1	0V4302	0.000	
73	  H1	7.339	87.098	122.049	 H	1	0V4302	0.000	
74	  H2	6.680	89.330	121.799	 H	1	0V4302	0.000	
75	  H3	4.058	88.369	121.656	 H	1	0V4302	0.000	
76	  H4	5.503	89.669	119.635	 H	1	0V4302	0.000	
77	  H5	4.811	86.926	119.600	 H	1	0V4302	0.000	
78	  H6	6.094	86.811	117.672	 H	1	0V4302	0.000	
79	 H6A	4.969	87.912	117.483	 H	1	0V4302	0.000	
@<TRIPOS>BOND
1 1 2 1
2 1 8 1
3 1 16 1
4 1 38 1
5 2 3 1
6 2 12 1
7 2 37 1
8 3 4 2
9 3 14 1
10 4 5 1
11 4 36 1
12 5 6 1
13 5 9 1
14 5 20 1
15 6 7 1
16 6 11 2
17 7 8 1
18 7 25 1
19 7 39 1
20 8 22 1
21 8 40 1
22 9 10 1
23 9 41 1
24 9 42 1
25 10 11 1
26 10 43 1
27 10 44 1
28 11 17 1
29 12 13 1
30 12 45 1
31 12 46 1
32 13 14 1
33 13 47 1
34 13 48 1
35 14 15 1
36 14 49 1
37 15 21 1
38 15 50 1
39 15 51 1
40 16 52 1
41 16 53 1
42 16 54 1
43 17 18 1
44 17 19 1
45 17 55 1
46 18 56 1
47 18 57 1
48 18 58 1
49 19 59 1
50 19 60 1
51 19 61 1
52 20 62 1
53 20 63 1
54 20 64 1
55 21 23 1
56 22 72 1
57 23 65 1
58 23 66 1
59 23 67 1
60 24 25 1
61 24 26 1
62 24 33 1
63 24 73 1
64 26 27 1
65 26 28 1
66 26 74 1
67 27 68 1
68 28 29 1
69 28 30 1
70 28 75 1
71 29 69 1
72 30 31 1
73 30 32 1
74 30 76 1
75 31 70 1
76 32 33 1
77 32 34 1
78 32 77 1
79 34 35 1
80 34 78 1
81 34 79 1
82 35 71 1
@<TRIPOS>SUBSTRUCTURE
1	0V4302	1	GROUP	1 A	0V4
