# created with PyMOL 2.5.5
@<TRIPOS>MOLECULE
6sis
147 154 1               
SMALL
USER_CHARGES
@<TRIPOS>ATOM
1	   N	78.973	94.616	-23.024	N.2	1	UNL1	-0.134	
2	   N	78.106	95.601	-23.584	N.2	1	UNL1	-0.128	
3	   N	74.877	99.756	-25.583	N.pl3	1	UNL1	-0.308	
4	   N	76.416	107.679	-22.190	N.pl3	1	UNL1	-0.302	
5	   N	73.310	107.661	-20.291	N.pl3	1	UNL1	-0.286	
6	   N	71.477	104.312	-20.076	N.pl3	1	UNL1	-0.310	
7	   N	62.623	103.090	-19.888	N.2	1	UNL1	-0.252	
8	   N	77.555	98.918	-22.197	N.3	1	UNL1	0.244	
9	   N	78.472	96.068	-21.419	N.pl3	1	UNL1	-0.272	
10	   C	80.076	94.083	-20.740	C.3	1	UNL1	-0.004	
11	   C	79.186	94.913	-21.704	C.2	1	UNL1	0.135	
12	   C	77.820	96.450	-22.611	C.2	1	UNL1	0.187	
13	   C	76.868	97.792	-22.678	C.3	1	UNL1	0.048	
14	   C	76.395	98.059	-24.131	C.3	1	UNL1	0.074	
15	   C	75.324	99.257	-24.230	C.2	1	UNL1	0.219	
16	   C	73.915	100.838	-25.703	C.3	1	UNL1	0.070	
17	   C	72.816	100.466	-26.775	C.3	1	UNL1	0.068	
18	   C	71.568	102.492	-27.503	C.3	1	UNL1	0.071	
19	   C	71.240	103.845	-26.681	C.3	1	UNL1	0.071	
20	   C	69.070	103.459	-25.517	C.3	1	UNL1	0.082	
21	   C	68.485	103.917	-24.128	C.3	1	UNL1	0.113	
22	   C	74.620	102.121	-26.118	C.3	1	UNL1	0.068	
23	   C	75.893	102.609	-24.147	C.3	1	UNL1	0.071	
24	   C	76.367	104.093	-24.129	C.3	1	UNL1	0.071	
25	   C	78.482	105.336	-24.499	C.3	1	UNL1	0.071	
26	   C	79.405	105.933	-23.320	C.3	1	UNL1	0.072	
27	   C	78.785	107.241	-21.290	C.3	1	UNL1	0.124	
28	   C	77.397	107.886	-21.131	C.2	1	UNL1	0.239	
29	   C	75.105	108.233	-22.115	C.3	1	UNL1	0.105	
30	   C	74.531	108.525	-23.563	C.3	1	UNL1	-0.011	
31	   C	74.195	107.239	-24.353	C.3	1	UNL1	-0.058	
32	   C	75.572	109.353	-24.364	C.3	1	UNL1	-0.058	
33	   C	73.217	109.374	-23.448	C.3	1	UNL1	-0.058	
34	   C	74.226	107.236	-21.342	C.2	1	UNL1	0.237	
35	   C	73.093	108.905	-19.852	C.3	1	UNL1	0.042	
36	   C	72.228	108.760	-18.564	C.3	1	UNL1	0.073	
37	   C	71.500	107.430	-18.741	C.3	1	UNL1	0.002	
38	   C	72.362	106.669	-19.439	C.3	1	UNL1	0.105	
39	   C	71.596	105.726	-20.401	C.2	1	UNL1	0.234	
40	   C	70.735	103.374	-21.001	C.3	1	UNL1	0.040	
41	   C	69.234	103.437	-20.746	C.2	1	UNL1	0.011	
42	   C	68.286	103.190	-21.816	C.2	1	UNL1	0.126	
43	   C	66.921	103.250	-21.556	C.2	1	UNL1	-0.011	
44	   C	66.458	103.550	-20.259	C.2	1	UNL1	-0.006	
45	   C	64.943	103.622	-19.946	C.2	1	UNL1	0.042	
46	   C	63.942	102.689	-20.393	C.2	1	UNL1	0.053	
47	   C	64.197	101.442	-21.276	C.3	1	UNL1	-0.021	
48	   C	62.714	104.259	-19.117	C.2	1	UNL1	0.065	
49	   C	67.391	103.791	-19.216	C.2	1	UNL1	-0.053	
50	   C	68.764	103.732	-19.467	C.2	1	UNL1	-0.053	
51	   C	78.451	99.000	-21.118	C.3	1	UNL1	0.032	
52	   C	79.277	100.288	-20.882	C.2	1	UNL1	0.005	
53	   C	80.590	100.192	-20.322	C.2	1	UNL1	-0.052	
54	   C	81.343	101.350	-20.099	C.2	1	UNL1	-0.043	
55	   C	80.817	102.588	-20.415	C.2	1	UNL1	0.041	
56	   C	79.504	102.684	-20.970	C.2	1	UNL1	-0.043	
57	   C	78.748	101.527	-21.193	C.2	1	UNL1	-0.052	
58	   C	78.337	98.068	-20.015	C.2	1	UNL1	0.039	
59	   C	78.375	96.753	-20.205	C.2	1	UNL1	0.097	
60	   C	78.115	97.088	-17.761	C.2	1	UNL1	-0.008	
61	   C	77.964	96.939	-16.244	C.3	1	UNL1	-0.033	
62	   C	78.186	98.338	-18.473	C.2	1	UNL1	-0.030	
63	   C	78.120	99.737	-17.844	C.3	1	UNL1	-0.038	
64	   O	71.662	101.379	-26.587	O.3	1	UNL1	-0.376	
65	   O	70.553	103.525	-25.443	O.3	1	UNL1	-0.374	
66	   O	68.739	102.880	-23.149	O.3	1	UNL1	-0.489	
67	   O	75.879	102.171	-25.500	O.3	1	UNL1	-0.376	
68	   O	77.848	104.108	-24.025	O.3	1	UNL1	-0.375	
69	   O	78.608	106.028	-22.109	O.3	1	UNL1	-0.368	
70	   O	73.015	108.709	-17.464	O.3	1	UNL1	-0.390	
71	   O	71.115	106.158	-21.407	O.2	1	UNL1	-0.274	
72	   O	74.301	106.082	-21.601	O.2	1	UNL1	-0.273	
73	   O	77.149	108.529	-20.171	O.2	1	UNL1	-0.273	
74	   O	74.888	99.747	-23.229	O.2	1	UNL1	-0.276	
75	  CL	81.773	104.058	-20.131	Cl	1	UNL1	-0.083	
76	 H02	76.828	99.583	-21.975	 H	1	UNL1	0.000	
77	 H03	61.874	104.755	-18.632	 H	1	UNL1	0.000	
78	   S	64.260	104.764	-19.054	S.3	1	UNL1	-0.075	
79	   S	78.215	95.867	-18.785	S.3	1	UNL1	-0.075	
80	   H	80.489	93.248	-21.266	 H	1	UNL1	0.031	
81	   H	79.483	93.731	-19.921	 H	1	UNL1	0.031	
82	   H	80.869	94.698	-20.368	 H	1	UNL1	0.031	
83	   H	76.014	97.614	-22.058	 H	1	UNL1	0.094	
84	   H	75.946	97.166	-24.513	 H	1	UNL1	0.042	
85	   H	77.254	98.347	-24.701	 H	1	UNL1	0.042	
86	   H	75.243	99.341	-26.397	 H	1	UNL1	0.149	
87	   H	73.445	100.988	-24.753	 H	1	UNL1	0.054	
88	   H	72.503	99.452	-26.637	 H	1	UNL1	0.058	
89	   H	73.213	100.568	-27.764	 H	1	UNL1	0.058	
90	   H	70.786	102.306	-28.210	 H	1	UNL1	0.058	
91	   H	72.498	102.607	-28.019	 H	1	UNL1	0.058	
92	   H	70.617	104.479	-27.277	 H	1	UNL1	0.058	
93	   H	72.158	104.346	-26.452	 H	1	UNL1	0.058	
94	   H	68.762	102.456	-25.726	 H	1	UNL1	0.059	
95	   H	68.711	104.097	-26.297	 H	1	UNL1	0.059	
96	   H	67.431	104.077	-24.217	 H	1	UNL1	0.072	
97	   H	68.952	104.829	-23.820	 H	1	UNL1	0.072	
98	   H	74.037	102.965	-25.814	 H	1	UNL1	0.058	
99	   H	74.738	102.141	-27.181	 H	1	UNL1	0.058	
100	   H	76.567	102.005	-23.576	 H	1	UNL1	0.058	
101	   H	74.917	102.524	-23.718	 H	1	UNL1	0.058	
102	   H	75.940	104.599	-23.288	 H	1	UNL1	0.058	
103	   H	76.055	104.590	-25.024	 H	1	UNL1	0.058	
104	   H	77.730	106.050	-24.764	 H	1	UNL1	0.058	
105	   H	79.082	105.126	-25.360	 H	1	UNL1	0.058	
106	   H	79.758	106.905	-23.596	 H	1	UNL1	0.058	
107	   H	80.246	105.292	-23.154	 H	1	UNL1	0.058	
108	   H	79.451	107.920	-21.779	 H	1	UNL1	0.066	
109	   H	79.204	106.998	-20.336	 H	1	UNL1	0.066	
110	   H	76.666	107.143	-22.977	 H	1	UNL1	0.149	
111	   H	75.120	109.173	-21.604	 H	1	UNL1	0.060	
112	   H	75.075	106.638	-24.448	 H	1	UNL1	0.024	
113	   H	73.836	107.502	-25.326	 H	1	UNL1	0.024	
114	   H	73.441	106.687	-23.832	 H	1	UNL1	0.024	
115	   H	76.479	108.793	-24.456	 H	1	UNL1	0.024	
116	   H	75.770	110.270	-23.850	 H	1	UNL1	0.024	
117	   H	75.185	109.566	-25.338	 H	1	UNL1	0.024	
118	   H	72.483	108.823	-22.899	 H	1	UNL1	0.024	
119	   H	72.843	109.587	-24.428	 H	1	UNL1	0.024	
120	   H	73.428	110.291	-22.939	 H	1	UNL1	0.024	
121	   H	72.568	109.474	-20.591	 H	1	UNL1	0.049	
122	   H	74.011	109.416	-19.652	 H	1	UNL1	0.049	
123	   H	71.560	109.586	-18.433	 H	1	UNL1	0.061	
124	   H	73.637	107.969	-17.546	 H	1	UNL1	0.210	
125	   H	70.589	107.566	-19.285	 H	1	UNL1	0.031	
126	   H	71.227	106.986	-17.806	 H	1	UNL1	0.031	
127	   H	72.942	106.064	-18.773	 H	1	UNL1	0.060	
128	   H	71.882	103.964	-19.249	 H	1	UNL1	0.149	
129	   H	71.077	102.374	-20.835	 H	1	UNL1	0.051	
130	   H	70.924	103.669	-22.012	 H	1	UNL1	0.051	
131	   H	66.245	103.074	-22.316	 H	1	UNL1	0.066	
132	   H	65.240	101.376	-21.507	 H	1	UNL1	0.029	
133	   H	63.636	101.526	-22.183	 H	1	UNL1	0.029	
134	   H	63.892	100.563	-20.748	 H	1	UNL1	0.029	
135	   H	67.052	104.011	-18.266	 H	1	UNL1	0.062	
136	   H	69.434	103.908	-18.702	 H	1	UNL1	0.062	
137	   H	79.182	98.480	-21.701	 H	1	UNL1	0.096	
138	   H	80.982	99.268	-20.082	 H	1	UNL1	0.062	
139	   H	82.291	101.279	-19.698	 H	1	UNL1	0.063	
140	   H	79.112	103.609	-21.207	 H	1	UNL1	0.063	
141	   H	77.798	101.599	-21.589	 H	1	UNL1	0.062	
142	   H	77.938	95.900	-15.988	 H	1	UNL1	0.028	
143	   H	77.055	97.406	-15.929	 H	1	UNL1	0.028	
144	   H	78.793	97.406	-15.755	 H	1	UNL1	0.028	
145	   H	78.197	100.478	-18.612	 H	1	UNL1	0.028	
146	   H	78.927	99.855	-17.152	 H	1	UNL1	0.028	
147	   H	77.189	99.853	-17.329	 H	1	UNL1	0.028	
@<TRIPOS>BOND
1 1 2 1
2 2 12 2
3 3 16 1
4 3 86 1
5 4 29 1
6 4 110 1
7 5 35 1
8 5 38 1
9 6 40 1
10 6 128 1
11 7 48 2
12 8 51 1
13 8 76 1
14 10 11 1
15 10 80 1
16 10 81 1
17 10 82 1
18 1 11 2
19 9 11 1
20 9 12 1
21 12 13 1
22 8 13 1
23 13 14 1
24 13 83 1
25 14 15 1
26 14 84 1
27 14 85 1
28 3 15 1
29 15 74 2
30 16 17 1
31 16 22 1
32 16 87 1
33 17 64 1
34 17 88 1
35 17 89 1
36 18 19 1
37 18 90 1
38 18 91 1
39 19 65 1
40 19 92 1
41 19 93 1
42 20 21 1
43 20 94 1
44 20 95 1
45 21 66 1
46 21 96 1
47 21 97 1
48 22 67 1
49 22 98 1
50 22 99 1
51 23 24 1
52 23 100 1
53 23 101 1
54 24 68 1
55 24 102 1
56 24 103 1
57 25 26 1
58 25 104 1
59 25 105 1
60 26 69 1
61 26 106 1
62 26 107 1
63 27 28 1
64 27 108 1
65 27 109 1
66 4 28 1
67 28 73 2
68 29 30 1
69 29 34 1
70 29 111 1
71 30 31 1
72 30 32 1
73 30 33 1
74 31 112 1
75 31 113 1
76 31 114 1
77 32 115 1
78 32 116 1
79 32 117 1
80 33 118 1
81 33 119 1
82 33 120 1
83 5 34 1
84 34 72 2
85 35 36 1
86 35 121 1
87 35 122 1
88 36 37 1
89 36 70 1
90 36 123 1
91 37 38 1
92 37 125 1
93 37 126 1
94 38 39 1
95 38 127 1
96 6 39 1
97 39 71 2
98 40 41 1
99 40 129 1
100 40 130 1
101 41 42 ar
102 41 50 ar
103 42 43 ar
104 43 44 ar
105 43 131 1
106 44 45 1
107 44 49 ar
108 45 46 2
109 45 78 1
110 7 46 1
111 46 47 1
112 47 132 1
113 47 133 1
114 47 134 1
115 48 77 1
116 48 78 1
117 49 50 ar
118 49 135 1
119 50 136 1
120 51 52 1
121 51 58 1
122 51 137 1
123 52 53 ar
124 52 57 ar
125 53 54 ar
126 53 138 1
127 54 55 ar
128 54 139 1
129 55 56 ar
130 56 57 ar
131 56 140 1
132 57 141 1
133 58 59 2
134 58 62 1
135 9 59 1
136 59 79 1
137 60 61 1
138 60 62 2
139 61 142 1
140 61 143 1
141 61 144 1
142 62 63 1
143 63 145 1
144 63 146 1
145 63 147 1
146 18 64 1
147 20 65 1
148 42 66 1
149 23 67 1
150 25 68 1
151 27 69 1
152 70 124 1
153 55 75 1
154 60 79 1
@<TRIPOS>SUBSTRUCTURE
1	UNL1	1	GROUP	1 ****	UNL
