@<TRIPOS>MOLECULE
6sis
 148 155 0 0 0
SMALL
USER_CHARGES

@<TRIPOS>ATOM
      1 CL         81.7730  104.0580  -20.1310 Cl      1  UNL1       -0.0835
      2 C          80.0760   94.0830  -20.7400 C.3     1  UNL1       -0.0041
      3 C          79.1860   94.9130  -21.7040 C.ar    1  UNL1        0.1354
      4 N          78.9730   94.6160  -23.0240 N.ar    1  UNL1       -0.1341
      5 N          78.1060   95.6010  -23.5840 N.ar    1  UNL1       -0.1281
      6 C          77.8200   96.4500  -22.6110 C.ar    1  UNL1        0.1871
      7 C          76.8680   97.7920  -22.6780 C.3     1  UNL1        0.0480
      8 C          76.3950   98.0590  -24.1310 C.3     1  UNL1        0.0741
      9 C          75.3240   99.2570  -24.2300 C.2     1  UNL1        0.2192
     10 N          74.8770   99.7560  -25.5830 N.am    1  UNL1       -0.3079
     11 C          73.9150  100.8380  -25.7030 C.3     1  UNL1        0.0697
     12 C          72.8160  100.4660  -26.7750 C.3     1  UNL1        0.0682
     13 O          71.6620  101.3790  -26.5870 O.3     1  UNL1       -0.3756
     14 C          71.5680  102.4920  -27.5030 C.3     1  UNL1        0.0711
     15 C          71.2400  103.8450  -26.6810 C.3     1  UNL1        0.0711
     16 O          70.5530  103.5250  -25.4430 O.3     1  UNL1       -0.3742
     17 C          69.0700  103.4590  -25.5170 C.3     1  UNL1        0.0818
     18 C          68.4850  103.9170  -24.1280 C.3     1  UNL1        0.1128
     19 O          68.7390  102.8800  -23.1490 O.3     1  UNL1       -0.4893
     20 C          74.6200  102.1210  -26.1180 C.3     1  UNL1        0.0682
     21 O          75.8790  102.1710  -25.5000 O.3     1  UNL1       -0.3756
     22 C          75.8930  102.6090  -24.1470 C.3     1  UNL1        0.0711
     23 C          76.3670  104.0930  -24.1290 C.3     1  UNL1        0.0711
     24 O          77.8480  104.1080  -24.0250 O.3     1  UNL1       -0.3752
     25 C          78.4820  105.3360  -24.4990 C.3     1  UNL1        0.0711
     26 C          79.4050  105.9330  -23.3200 C.3     1  UNL1        0.0716
     27 O          78.6080  106.0280  -22.1090 O.3     1  UNL1       -0.3683
     28 C          78.7850  107.2410  -21.2900 C.3     1  UNL1        0.1237
     29 C          77.3970  107.8860  -21.1310 C.2     1  UNL1        0.2394
     30 N          76.4160  107.6790  -22.1900 N.am    1  UNL1       -0.3016
     31 C          75.1050  108.2330  -22.1150 C.3     1  UNL1        0.1045
     32 C          74.5310  108.5250  -23.5630 C.3     1  UNL1       -0.0108
     33 C          74.1950  107.2390  -24.3530 C.3     1  UNL1       -0.0579
     34 C          75.5720  109.3530  -24.3640 C.3     1  UNL1       -0.0579
     35 C          73.2170  109.3740  -23.4480 C.3     1  UNL1       -0.0579
     36 C          74.2260  107.2360  -21.3420 C.2     1  UNL1        0.2371
     37 N          73.3100  107.6610  -20.2910 N.am    1  UNL1       -0.2858
     38 C          73.0930  108.9050  -19.8520 C.3     1  UNL1        0.0416
     39 C          72.2280  108.7600  -18.5640 C.3     1  UNL1        0.0731
     40 O          73.0150  108.7090  -17.4640 O.3     1  UNL1       -0.3902
     41 C          71.5000  107.4300  -18.7410 C.3     1  UNL1        0.0018
     42 C          72.3620  106.6690  -19.4390 C.3     1  UNL1        0.1047
     43 C          71.5960  105.7260  -20.4010 C.2     1  UNL1        0.2339
     44 N          71.4770  104.3120  -20.0760 N.am    1  UNL1       -0.3095
     45 C          70.7350  103.3740  -21.0010 C.3     1  UNL1        0.0403
     46 C          69.2340  103.4370  -20.7460 C.ar    1  UNL1        0.0113
     47 C          68.2860  103.1900  -21.8160 C.ar    1  UNL1        0.1259
     48 C          66.9210  103.2500  -21.5560 C.ar    1  UNL1       -0.0113
     49 C          66.4580  103.5500  -20.2590 C.ar    1  UNL1       -0.0061
     50 C          64.9430  103.6220  -19.9460 C.ar    1  UNL1        0.0418
     51 C          63.9420  102.6890  -20.3930 C.ar    1  UNL1        0.0531
     52 C          64.1970  101.4420  -21.2760 C.3     1  UNL1       -0.0212
     53 N          62.6230  103.0900  -19.8880 N.ar    1  UNL1       -0.2520
     54 C          62.7140  104.2590  -19.1170 C.ar    1  UNL1        0.0655
     55 S          64.2600  104.7640  -19.0540 S.2     1  UNL1       -0.0752
     56 C          67.3910  103.7910  -19.2160 C.ar    1  UNL1       -0.0529
     57 C          68.7640  103.7320  -19.4670 C.ar    1  UNL1       -0.0530
     58 O          71.1150  106.1580  -21.4070 O.2     1  UNL1       -0.2738
     59 O          74.3010  106.0820  -21.6010 O.2     1  UNL1       -0.2735
     60 O          77.1490  108.5290  -20.1710 O.2     1  UNL1       -0.2733
     61 O          74.8880   99.7470  -23.2290 O.2     1  UNL1       -0.2756
     62 N          77.5550   98.9180  -22.1970 N.4     1  UNL1        0.2439
     63 C          78.4510   99.0000  -21.1180 C.3     1  UNL1        0.0325
     64 C          79.2770  100.2880  -20.8820 C.ar    1  UNL1        0.0049
     65 C          80.5900  100.1920  -20.3220 C.ar    1  UNL1       -0.0515
     66 C          81.3430  101.3500  -20.0990 C.ar    1  UNL1       -0.0429
     67 C          80.8170  102.5880  -20.4150 C.ar    1  UNL1        0.0410
     68 C          79.5040  102.6840  -20.9700 C.ar    1  UNL1       -0.0429
     69 C          78.7480  101.5270  -21.1930 C.ar    1  UNL1       -0.0515
     70 C          78.3370   98.0680  -20.0150 C.ar    1  UNL1        0.0390
     71 C          78.3750   96.7530  -20.2050 C.ar    1  UNL1        0.0967
     72 S          78.2150   95.8670  -18.7850 S.2     1  UNL1       -0.0751
     73 C          78.1150   97.0880  -17.7610 C.ar    1  UNL1       -0.0079
     74 C          77.9640   96.9390  -16.2440 C.3     1  UNL1       -0.0331
     75 C          78.1860   98.3380  -18.4730 C.ar    1  UNL1       -0.0296
     76 C          78.1200   99.7370  -17.8440 C.3     1  UNL1       -0.0384
     77 N          78.4720   96.0680  -21.4190 N.ar    1  UNL1       -0.2720
     78 H          80.4891   93.2478  -21.2661 H       1  UNL1        0.0308
     79 H          79.4835   93.7313  -19.9214 H       1  UNL1        0.0308
     80 H          80.8688   94.6979  -20.3681 H       1  UNL1        0.0308
     81 H          76.0141   97.6138  -22.0583 H       1  UNL1        0.0940
     82 H          75.9455   97.1665  -24.5133 H       1  UNL1        0.0419
     83 H          77.2536   98.3474  -24.7007 H       1  UNL1        0.0419
     84 H          75.2434   99.3414  -26.3973 H       1  UNL1        0.1491
     85 H          73.4452  100.9879  -24.7534 H       1  UNL1        0.0544
     86 H          72.5028   99.4522  -26.6367 H       1  UNL1        0.0579
     87 H          73.2125  100.5681  -27.7636 H       1  UNL1        0.0579
     88 H          70.7864  102.3064  -28.2098 H       1  UNL1        0.0583
     89 H          72.4981  102.6067  -28.0193 H       1  UNL1        0.0583
     90 H          70.6172  104.4787  -27.2773 H       1  UNL1        0.0583
     91 H          72.1575  104.3456  -26.4520 H       1  UNL1        0.0583
     92 H          68.7624  102.4557  -25.7261 H       1  UNL1        0.0594
     93 H          68.7109  104.0974  -26.2970 H       1  UNL1        0.0594
     94 H          67.4308  104.0769  -24.2170 H       1  UNL1        0.0720
     95 H          68.9517  104.8293  -23.8203 H       1  UNL1        0.0720
     96 H          74.0372  102.9652  -25.8136 H       1  UNL1        0.0579
     97 H          74.7382  102.1408  -27.1813 H       1  UNL1        0.0579
     98 H          76.5672  102.0051  -23.5763 H       1  UNL1        0.0583
     99 H          74.9166  102.5244  -23.7177 H       1  UNL1        0.0583
    100 H          75.9401  104.5990  -23.2884 H       1  UNL1        0.0583
    101 H          76.0551  104.5905  -25.0235 H       1  UNL1        0.0583
    102 H          77.7301  106.0499  -24.7635 H       1  UNL1        0.0583
    103 H          79.0822  105.1263  -25.3596 H       1  UNL1        0.0583
    104 H          79.7583  106.9046  -23.5959 H       1  UNL1        0.0583
    105 H          80.2457  105.2921  -23.1544 H       1  UNL1        0.0583
    106 H          79.4515  107.9202  -21.7793 H       1  UNL1        0.0656
    107 H          79.2039  106.9985  -20.3357 H       1  UNL1        0.0656
    108 H          76.6658  107.1428  -22.9770 H       1  UNL1        0.1495
    109 H          75.1205  109.1730  -21.6040 H       1  UNL1        0.0600
    110 H          75.0753  106.6382  -24.4475 H       1  UNL1        0.0236
    111 H          73.8364  107.5017  -25.3263 H       1  UNL1        0.0236
    112 H          73.4408  106.6871  -23.8319 H       1  UNL1        0.0236
    113 H          76.4790  108.7928  -24.4556 H       1  UNL1        0.0236
    114 H          75.7698  110.2704  -23.8500 H       1  UNL1        0.0236
    115 H          75.1846  109.5664  -25.3383 H       1  UNL1        0.0236
    116 H          72.4830  108.8225  -22.8985 H       1  UNL1        0.0236
    117 H          72.8433  109.5873  -24.4277 H       1  UNL1        0.0236
    118 H          73.4284  110.2913  -22.9394 H       1  UNL1        0.0236
    119 H          72.5679  109.4738  -20.5906 H       1  UNL1        0.0490
    120 H          74.0114  109.4164  -19.6523 H       1  UNL1        0.0490
    121 H          71.5604  109.5858  -18.4326 H       1  UNL1        0.0610
    122 H          73.6372  107.9694  -17.5456 H       1  UNL1        0.2098
    123 H          70.5886  107.5663  -19.2848 H       1  UNL1        0.0313
    124 H          71.2272  106.9860  -17.8065 H       1  UNL1        0.0313
    125 H          72.9419  106.0645  -18.7732 H       1  UNL1        0.0597
    126 H          71.8822  103.9644  -19.2488 H       1  UNL1        0.1491
    127 H          71.0773  102.3740  -20.8348 H       1  UNL1        0.0513
    128 H          70.9236  103.6692  -22.0120 H       1  UNL1        0.0513
    129 H          66.2447  103.0742  -22.3155 H       1  UNL1        0.0660
    130 H          65.2397  101.3756  -21.5069 H       1  UNL1        0.0293
    131 H          63.6355  101.5263  -22.1829 H       1  UNL1        0.0293
    132 H          63.8919  100.5627  -20.7481 H       1  UNL1        0.0293
    133 H          61.9182  104.7290  -18.6578 H       1  UNL1        0.0907
    134 H          67.0525  104.0112  -18.2663 H       1  UNL1        0.0624
    135 H          69.4338  103.9077  -18.7018 H       1  UNL1        0.0622
    136 H          76.8206   99.5890  -21.9715 H       1  UNL1        0.2031
    137 H          78.2273   99.0189  -22.9574 H       1  UNL1        0.2031
    138 H          79.1821   98.4799  -21.7010 H       1  UNL1        0.0958
    139 H          80.9820   99.2679  -20.0823 H       1  UNL1        0.0623
    140 H          82.2915  101.2794  -19.6984 H       1  UNL1        0.0632
    141 H          79.1118  103.6087  -21.2071 H       1  UNL1        0.0632
    142 H          77.7976  101.5988  -21.5888 H       1  UNL1        0.0623
    143 H          77.9385   95.9003  -15.9884 H       1  UNL1        0.0283
    144 H          77.0547   97.4064  -15.9285 H       1  UNL1        0.0283
    145 H          78.7934   97.4062  -15.7554 H       1  UNL1        0.0283
    146 H          78.1974  100.4776  -18.6124 H       1  UNL1        0.0278
    147 H          78.9274   99.8554  -17.1519 H       1  UNL1        0.0278
    148 H          77.1892   99.8531  -17.3293 H       1  UNL1        0.0278
@<TRIPOS>UNITY_ATOM_ATTR
62 1
charge 1
@<TRIPOS>BOND
     1     1    67    1
     2     2     3    1
     3     3     4   ar
     4     3    77   ar
     5     4     5   ar
     6     5     6   ar
     7     6     7    1
     8     6    77   ar
     9     7     8    1
    10     7    62    1
    11     8     9    1
    12     9    10   am
    13     9    61    2
    14    10    11    1
    15    11    12    1
    16    11    20    1
    17    12    13    1
    18    13    14    1
    19    14    15    1
    20    15    16    1
    21    16    17    1
    22    17    18    1
    23    18    19    1
    24    19    47    1
    25    20    21    1
    26    21    22    1
    27    22    23    1
    28    23    24    1
    29    24    25    1
    30    25    26    1
    31    26    27    1
    32    27    28    1
    33    28    29    1
    34    29    30   am
    35    29    60    2
    36    30    31    1
    37    31    32    1
    38    31    36    1
    39    32    33    1
    40    32    34    1
    41    32    35    1
    42    36    37   am
    43    36    59    2
    44    37    38    1
    45    37    42    1
    46    38    39    1
    47    39    40    1
    48    39    41    1
    49    41    42    1
    50    42    43    1
    51    43    44   am
    52    43    58    2
    53    44    45    1
    54    45    46    1
    55    46    47   ar
    56    46    57   ar
    57    47    48   ar
    58    48    49   ar
    59    49    50    1
    60    49    56   ar
    61    50    51   ar
    62    50    55   ar
    63    51    52    1
    64    51    53   ar
    65    53    54   ar
    66    54    55   ar
    67    56    57   ar
    68    62    63    1
    69    63    64    1
    70    63    70    1
    71    64    65   ar
    72    64    69   ar
    73    65    66   ar
    74    66    67   ar
    75    67    68   ar
    76    68    69   ar
    77    70    71   ar
    78    70    75   ar
    79    71    72   ar
    80    71    77    1
    81    72    73   ar
    82    73    74    1
    83    73    75   ar
    84    75    76    1
    85     2    78    1
    86     2    79    1
    87     2    80    1
    88     7    81    1
    89     8    82    1
    90     8    83    1
    91    10    84    1
    92    11    85    1
    93    12    86    1
    94    12    87    1
    95    14    88    1
    96    14    89    1
    97    15    90    1
    98    15    91    1
    99    17    92    1
   100    17    93    1
   101    18    94    1
   102    18    95    1
   103    20    96    1
   104    20    97    1
   105    22    98    1
   106    22    99    1
   107    23   100    1
   108    23   101    1
   109    25   102    1
   110    25   103    1
   111    26   104    1
   112    26   105    1
   113    28   106    1
   114    28   107    1
   115    30   108    1
   116    31   109    1
   117    33   110    1
   118    33   111    1
   119    33   112    1
   120    34   113    1
   121    34   114    1
   122    34   115    1
   123    35   116    1
   124    35   117    1
   125    35   118    1
   126    38   119    1
   127    38   120    1
   128    39   121    1
   129    40   122    1
   130    41   123    1
   131    41   124    1
   132    42   125    1
   133    44   126    1
   134    45   127    1
   135    45   128    1
   136    48   129    1
   137    52   130    1
   138    52   131    1
   139    52   132    1
   140    54   133    1
   141    56   134    1
   142    57   135    1
   143    62   136    1
   144    62   137    1
   145    63   138    1
   146    65   139    1
   147    66   140    1
   148    68   141    1
   149    69   142    1
   150    74   143    1
   151    74   144    1
   152    74   145    1
   153    76   146    1
   154    76   147    1
   155    76   148    1
