# created with PyMOL 2.5.5
@<TRIPOS>MOLECULE
6sis
77 84 1                 
SMALL
USER_CHARGES
@<TRIPOS>ATOM
1	  CL	81.773	104.058	-20.131	Cl	1	LFE301	0.000	
2	 C01	80.076	94.083	-20.740	C.3	1	LFE301	0.000	
3	 C02	79.186	94.913	-21.704	C.2	1	LFE301	0.000	
4	 N03	78.973	94.616	-23.024	N.2	1	LFE301	0.000	
5	 N04	78.106	95.601	-23.584	N.2	1	LFE301	0.000	
6	 C05	77.820	96.450	-22.611	C.2	1	LFE301	0.000	
7	 C06	76.868	97.792	-22.678	C.3	1	LFE301	0.000	
8	 C07	76.395	98.059	-24.131	C.3	1	LFE301	0.000	
9	 C08	75.324	99.257	-24.230	C.2	1	LFE301	0.000	
10	 N09	74.877	99.756	-25.583	N.pl3	1	LFE301	0.000	
11	 C10	73.915	100.838	-25.703	C.3	1	LFE301	0.000	
12	 C11	72.816	100.466	-26.775	C.3	1	LFE301	0.000	
13	 O12	71.662	101.379	-26.587	O.3	1	LFE301	0.000	
14	 C13	71.568	102.492	-27.503	C.3	1	LFE301	0.000	
15	 C14	71.240	103.845	-26.681	C.3	1	LFE301	0.000	
16	 O15	70.553	103.525	-25.443	O.3	1	LFE301	0.000	
17	 C16	69.070	103.459	-25.517	C.3	1	LFE301	0.000	
18	 C17	68.485	103.917	-24.128	C.3	1	LFE301	0.000	
19	 O18	68.739	102.880	-23.149	O.3	1	LFE301	0.000	
20	 C19	74.620	102.121	-26.118	C.3	1	LFE301	0.000	
21	 O20	75.879	102.171	-25.500	O.3	1	LFE301	0.000	
22	 C21	75.893	102.609	-24.147	C.3	1	LFE301	0.000	
23	 C22	76.367	104.093	-24.129	C.3	1	LFE301	0.000	
24	 O23	77.848	104.108	-24.025	O.3	1	LFE301	0.000	
25	 C24	78.482	105.336	-24.499	C.3	1	LFE301	0.000	
26	 C25	79.405	105.933	-23.320	C.3	1	LFE301	0.000	
27	 O26	78.608	106.028	-22.109	O.3	1	LFE301	0.000	
28	 C27	78.785	107.241	-21.290	C.3	1	LFE301	0.000	
29	 C28	77.397	107.886	-21.131	C.2	1	LFE301	0.000	
30	 N29	76.416	107.679	-22.190	N.pl3	1	LFE301	0.000	
31	 C30	75.105	108.233	-22.115	C.3	1	LFE301	0.000	
32	 C31	74.531	108.525	-23.563	C.3	1	LFE301	0.000	
33	 C32	74.195	107.239	-24.353	C.3	1	LFE301	0.000	
34	 C33	75.572	109.353	-24.364	C.3	1	LFE301	0.000	
35	 C34	73.217	109.374	-23.448	C.3	1	LFE301	0.000	
36	 C35	74.226	107.236	-21.342	C.2	1	LFE301	0.000	
37	 N36	73.310	107.661	-20.291	N.pl3	1	LFE301	0.000	
38	 C37	73.093	108.905	-19.852	C.3	1	LFE301	0.000	
39	 C38	72.228	108.760	-18.564	C.3	1	LFE301	0.000	
40	 O39	73.015	108.709	-17.464	O.3	1	LFE301	0.000	
41	 C40	71.500	107.430	-18.741	C.3	1	LFE301	0.000	
42	 C41	72.362	106.669	-19.439	C.3	1	LFE301	0.000	
43	 C42	71.596	105.726	-20.401	C.2	1	LFE301	0.000	
44	 N43	71.477	104.312	-20.076	N.pl3	1	LFE301	0.000	
45	 C44	70.735	103.374	-21.001	C.3	1	LFE301	0.000	
46	 C45	69.234	103.437	-20.746	C.2	1	LFE301	0.000	
47	 C46	68.286	103.190	-21.816	C.2	1	LFE301	0.000	
48	 C47	66.921	103.250	-21.556	C.2	1	LFE301	0.000	
49	 C48	66.458	103.550	-20.259	C.2	1	LFE301	0.000	
50	 C49	64.943	103.622	-19.946	C.2	1	LFE301	0.000	
51	 C50	63.942	102.689	-20.393	C.2	1	LFE301	0.000	
52	 C51	64.197	101.442	-21.276	C.3	1	LFE301	0.000	
53	 N52	62.623	103.090	-19.888	N.2	1	LFE301	0.000	
54	 C53	62.714	104.259	-19.117	C.2	1	LFE301	0.000	
55	 S54	64.260	104.764	-19.054	S.2	1	LFE301	0.000	
56	 C55	67.391	103.791	-19.216	C.2	1	LFE301	0.000	
57	 C56	68.764	103.732	-19.467	C.2	1	LFE301	0.000	
58	 O57	71.115	106.158	-21.407	O.2	1	LFE301	0.000	
59	 O58	74.301	106.082	-21.601	O.2	1	LFE301	0.000	
60	 O59	77.149	108.529	-20.171	O.2	1	LFE301	0.000	
61	 O60	74.888	99.747	-23.229	O.2	1	LFE301	0.000	
62	 N61	77.555	98.918	-22.197	N.3	1	LFE301	0.000	
63	 C62	78.451	99.000	-21.118	C.3	1	LFE301	0.000	
64	 C63	79.277	100.288	-20.882	C.2	1	LFE301	0.000	
65	 C64	80.590	100.192	-20.322	C.2	1	LFE301	0.000	
66	 C65	81.343	101.350	-20.099	C.2	1	LFE301	0.000	
67	 C66	80.817	102.588	-20.415	C.2	1	LFE301	0.000	
68	 C68	79.504	102.684	-20.970	C.2	1	LFE301	0.000	
69	 C69	78.748	101.527	-21.193	C.2	1	LFE301	0.000	
70	 C70	78.337	98.068	-20.015	C.2	1	LFE301	0.000	
71	 C71	78.375	96.753	-20.205	C.2	1	LFE301	0.000	
72	 S72	78.215	95.867	-18.785	S.2	1	LFE301	0.000	
73	 C73	78.115	97.088	-17.761	C.2	1	LFE301	0.000	
74	 C74	77.964	96.939	-16.244	C.3	1	LFE301	0.000	
75	 C75	78.186	98.338	-18.473	C.2	1	LFE301	0.000	
76	 C76	78.120	99.737	-17.844	C.3	1	LFE301	0.000	
77	 N77	78.472	96.068	-21.419	N.2	1	LFE301	0.000	
@<TRIPOS>BOND
1 1 67 1
2 2 3 1
3 3 4 ar
4 3 77 ar
5 4 5 ar
6 5 6 ar
7 6 7 1
8 6 77 ar
9 7 8 1
10 7 62 1
11 8 9 1
12 9 10 1
13 9 61 2
14 10 11 1
15 11 12 1
16 11 20 1
17 12 13 1
18 13 14 1
19 14 15 1
20 15 16 1
21 16 17 1
22 17 18 1
23 18 19 1
24 19 47 1
25 20 21 1
26 21 22 1
27 22 23 1
28 23 24 1
29 24 25 1
30 25 26 1
31 26 27 1
32 27 28 1
33 28 29 1
34 29 30 1
35 29 60 2
36 30 31 1
37 31 32 1
38 31 36 1
39 32 33 1
40 32 34 1
41 32 35 1
42 36 37 1
43 36 59 2
44 37 38 1
45 37 42 1
46 38 39 1
47 39 40 1
48 39 41 1
49 41 42 1
50 42 43 1
51 43 44 1
52 43 58 2
53 44 45 1
54 45 46 1
55 46 47 ar
56 46 57 ar
57 47 48 ar
58 48 49 ar
59 49 50 1
60 49 56 ar
61 50 51 ar
62 50 55 ar
63 51 52 1
64 51 53 ar
65 53 54 ar
66 54 55 ar
67 56 57 ar
68 62 63 1
69 63 64 1
70 63 70 1
71 64 65 ar
72 64 69 ar
73 65 66 ar
74 66 67 ar
75 67 68 ar
76 68 69 ar
77 70 71 ar
78 70 75 ar
79 71 72 ar
80 71 77 1
81 72 73 ar
82 73 74 1
83 73 75 ar
84 75 76 1
@<TRIPOS>SUBSTRUCTURE
1	LFE301	1	GROUP	1 H	LFE
