@<TRIPOS>MOLECULE
LIG
  147   154     1     0     0
SMALL
bcc


@<TRIPOS>ATOM
      1 N           78.9730    94.6160   -23.0240 nc         1 LIG      -0.346000
      2 N1          78.1060    95.6010   -23.5840 nc         1 LIG      -0.339000
      3 N2          74.8770    99.7560   -25.5830 ns         1 LIG      -0.542900
      4 N3          76.4160   107.6790   -22.1900 ns         1 LIG      -0.544900
      5 N4          73.3100   107.6610   -20.2910 n          1 LIG      -0.459800
      6 N5          71.4770   104.3120   -20.0760 ns         1 LIG      -0.554900
      7 N6          62.6230   103.0900   -19.8880 nc         1 LIG      -0.628000
      8 N7          77.5550    98.9180   -22.1970 n7         1 LIG      -0.830200
      9 N8          78.4720    96.0680   -21.4190 na         1 LIG      -0.228800
     10 C           80.0760    94.0830   -20.7400 c3         1 LIG      -0.124400
     11 C1          79.1860    94.9130   -21.7040 cd         1 LIG       0.379800
     12 C2          77.8200    96.4500   -22.6110 cd         1 LIG       0.361800
     13 C3          76.8680    97.7920   -22.6780 c3         1 LIG       0.185200
     14 C4          76.3950    98.0590   -24.1310 c3         1 LIG      -0.140400
     15 C5          75.3240    99.2570   -24.2300 c          1 LIG       0.657100
     16 C6          73.9150   100.8380   -25.7030 c3         1 LIG       0.050700
     17 C7          72.8160   100.4660   -26.7750 c3         1 LIG       0.126400
     18 C8          71.5680   102.4920   -27.5030 c3         1 LIG       0.090400
     19 C9          71.2400   103.8450   -26.6810 c3         1 LIG       0.127400
     20 C10         69.0700   103.4590   -25.5170 c3         1 LIG       0.118400
     21 C11         68.4850   103.9170   -24.1280 c3         1 LIG       0.112400
     22 C12         74.6200   102.1210   -26.1180 c3         1 LIG       0.107400
     23 C13         75.8930   102.6090   -24.1470 c3         1 LIG       0.120400
     24 C14         76.3670   104.0930   -24.1290 c3         1 LIG       0.084400
     25 C15         78.4820   105.3360   -24.4990 c3         1 LIG       0.102400
     26 C16         79.4050   105.9330   -23.3200 c3         1 LIG       0.086400
     27 C17         78.7850   107.2410   -21.2900 c3         1 LIG       0.063400
     28 C18         77.3970   107.8860   -21.1310 c          1 LIG       0.630100
     29 C19         75.1050   108.2330   -22.1150 c3         1 LIG       0.049700
     30 C20         74.5310   108.5250   -23.5630 c3         1 LIG      -0.048000
     31 C21         74.1950   107.2390   -24.3530 c3         1 LIG      -0.099100
     32 C22         75.5720   109.3530   -24.3640 c3         1 LIG      -0.099100
     33 C23         73.2170   109.3740   -23.4480 c3         1 LIG      -0.099100
     34 C24         74.2260   107.2360   -21.3420 c          1 LIG       0.645100
     35 C25         73.0930   108.9050   -19.8520 c5         1 LIG       0.037000
     36 C26         72.2280   108.7600   -18.5640 c5         1 LIG       0.136100
     37 C27         71.5000   107.4300   -18.7410 c5         1 LIG      -0.124400
     38 C28         72.3620   106.6690   -19.4390 c5         1 LIG       0.030700
     39 C29         71.5960   105.7260   -20.4010 c          1 LIG       0.649100
     40 C30         70.7350   103.3740   -21.0010 c3         1 LIG       0.126300
     41 C31         69.2340   103.4370   -20.7460 ca         1 LIG      -0.115300
     42 C32         68.2860   103.1900   -21.8160 ca         1 LIG       0.094100
     43 C33         66.9210   103.2500   -21.5560 ca         1 LIG      -0.125000
     44 C34         66.4580   103.5500   -20.2590 ca         1 LIG       0.002000
     45 C35         64.9430   103.6220   -19.9460 cd         1 LIG      -0.147400
     46 C36         63.9420   102.6890   -20.3930 cc         1 LIG       0.359600
     47 C37         64.1970   101.4420   -21.2760 c3         1 LIG      -0.130400
     48 C38         62.7140   104.2590   -19.1170 cd         1 LIG       0.368300
     49 C39         67.3910   103.7910   -19.2160 ca         1 LIG      -0.129000
     50 C40         68.7640   103.7320   -19.4670 ca         1 LIG      -0.103000
     51 C41         78.4510    99.0000   -21.1180 c3         1 LIG       0.294100
     52 C42         79.2770   100.2880   -20.8820 ca         1 LIG      -0.063300
     53 C43         80.5900   100.1920   -20.3220 ca         1 LIG      -0.115000
     54 C44         81.3430   101.3500   -20.0990 ca         1 LIG      -0.126500
     55 C45         80.8170   102.5880   -20.4150 ca         1 LIG       0.014400
     56 C46         79.5040   102.6840   -20.9700 ca         1 LIG      -0.126500
     57 C47         78.7480   101.5270   -21.1930 ca         1 LIG      -0.115000
     58 C48         78.3370    98.0680   -20.0150 cc         1 LIG      -0.133300
     59 C49         78.3750    96.7530   -20.2050 cd         1 LIG      -0.052300
     60 C50         78.1150    97.0880   -17.7610 cd         1 LIG      -0.112400
     61 C51         77.9640    96.9390   -16.2440 c3         1 LIG      -0.026800
     62 C52         78.1860    98.3380   -18.4730 cc         1 LIG      -0.068300
     63 C53         78.1200    99.7370   -17.8440 c3         1 LIG      -0.039800
     64 O           71.6620   101.3790   -26.5870 os         1 LIG      -0.431600
     65 O1          70.5530   103.5250   -25.4430 os         1 LIG      -0.421600
     66 O2          68.7390   102.8800   -23.1490 os         1 LIG      -0.354900
     67 O3          75.8790   102.1710   -25.5000 os         1 LIG      -0.411600
     68 O4          77.8480   104.1080   -24.0250 os         1 LIG      -0.405600
     69 O5          78.6080   106.0280   -22.1090 os         1 LIG      -0.433600
     70 O6          73.0150   108.7090   -17.4640 oh         1 LIG      -0.585800
     71 O7          71.1150   106.1580   -21.4070 o          1 LIG      -0.624100
     72 O8          74.3010   106.0820   -21.6010 o          1 LIG      -0.629100
     73 O9          77.1490   108.5290   -20.1710 o          1 LIG      -0.625100
     74 O10         74.8880    99.7470   -23.2290 o          1 LIG      -0.628100
     75 Cl          81.7730   104.0580   -20.1310 cl         1 LIG      -0.100400
     76 H02         76.8280    99.5830   -21.9750 hn         1 LIG       0.388800
     77 H03         61.8740   104.7550   -18.6320 h5         1 LIG       0.054100
     78 S           64.2600   104.7640   -19.0540 ss         1 LIG      -0.092300
     79 S1          78.2150    95.8670   -18.7850 ss         1 LIG       0.053200
     80 H           80.4890    93.2480   -21.2660 hc         1 LIG       0.065700
     81 H1          79.4830    93.7310   -19.9210 hc         1 LIG       0.065700
     82 H2          80.8690    94.6980   -20.3680 hc         1 LIG       0.065700
     83 H3          76.0140    97.6140   -22.0580 h1         1 LIG       0.065700
     84 H4          75.9460    97.1660   -24.5130 hc         1 LIG       0.090700
     85 H5          77.2540    98.3470   -24.7010 hc         1 LIG       0.090700
     86 H6          75.2430    99.3410   -26.3970 hn         1 LIG       0.314500
     87 H7          73.4450   100.9880   -24.7530 h1         1 LIG       0.097700
     88 H8          72.5030    99.4520   -26.6370 h1         1 LIG       0.041200
     89 H9          73.2130   100.5680   -27.7640 h1         1 LIG       0.041200
     90 H10         70.7860   102.3060   -28.2100 h1         1 LIG       0.049700
     91 H11         72.4980   102.6070   -28.0190 h1         1 LIG       0.049700
     92 H12         70.6170   104.4790   -27.2770 h1         1 LIG       0.059200
     93 H13         72.1580   104.3460   -26.4520 h1         1 LIG       0.059200
     94 H14         68.7620   102.4560   -25.7260 h1         1 LIG       0.051700
     95 H15         68.7110   104.0970   -26.2970 h1         1 LIG       0.051700
     96 H16         67.4310   104.0770   -24.2170 h1         1 LIG       0.050700
     97 H17         68.9520   104.8290   -23.8200 h1         1 LIG       0.050700
     98 H18         74.0370   102.9650   -25.8140 h1         1 LIG       0.063700
     99 H19         74.7380   102.1410   -27.1810 h1         1 LIG       0.063700
    100 H20         76.5670   102.0050   -23.5760 h1         1 LIG       0.068200
    101 H21         74.9170   102.5240   -23.7180 h1         1 LIG       0.068200
    102 H22         75.9400   104.5990   -23.2880 h1         1 LIG       0.042200
    103 H23         76.0550   104.5900   -25.0240 h1         1 LIG       0.042200
    104 H24         77.7300   106.0500   -24.7640 h1         1 LIG       0.058200
    105 H25         79.0820   105.1260   -25.3600 h1         1 LIG       0.058200
    106 H26         79.7580   106.9050   -23.5960 h1         1 LIG       0.065200
    107 H27         80.2460   105.2920   -23.1540 h1         1 LIG       0.065200
    108 H28         79.4510   107.9200   -21.7790 h1         1 LIG       0.083200
    109 H29         79.2040   106.9980   -20.3360 h1         1 LIG       0.083200
    110 H30         76.6660   107.1430   -22.9770 hn         1 LIG       0.333500
    111 H31         75.1200   109.1730   -21.6040 h1         1 LIG       0.098700
    112 H32         75.0750   106.6380   -24.4480 hc         1 LIG       0.045478
    113 H33         73.8360   107.5020   -25.3260 hc         1 LIG       0.045478
    114 H34         73.4410   106.6870   -23.8320 hc         1 LIG       0.045478
    115 H35         76.4790   108.7930   -24.4560 hc         1 LIG       0.045478
    116 H36         75.7700   110.2700   -23.8500 hc         1 LIG       0.045478
    117 H37         75.1850   109.5660   -25.3380 hc         1 LIG       0.045478
    118 H38         72.4830   108.8230   -22.8990 hc         1 LIG       0.045478
    119 H39         72.8430   109.5870   -24.4280 hc         1 LIG       0.045478
    120 H40         73.4280   110.2910   -22.9390 hc         1 LIG       0.045478
    121 H41         72.5680   109.4740   -20.5910 h1         1 LIG       0.074200
    122 H42         74.0110   109.4160   -19.6520 h1         1 LIG       0.074200
    123 H43         71.5600   109.5860   -18.4330 h1         1 LIG       0.097700
    124 H44         73.6370   107.9690   -17.5460 ho         1 LIG       0.403000
    125 H45         70.5890   107.5660   -19.2850 hc         1 LIG       0.082700
    126 H46         71.2270   106.9860   -17.8060 hc         1 LIG       0.082700
    127 H47         72.9420   106.0640   -18.7730 h1         1 LIG       0.085700
    128 H48         71.8820   103.9640   -19.2490 hn         1 LIG       0.343500
    129 H49         71.0770   102.3740   -20.8350 h1         1 LIG       0.080700
    130 H50         70.9240   103.6690   -22.0120 h1         1 LIG       0.080700
    131 H51         66.2450   103.0740   -22.3160 ha         1 LIG       0.150000
    132 H52         65.2400   101.3760   -21.5070 hc         1 LIG       0.056033
    133 H53         63.6360   101.5260   -22.1830 hc         1 LIG       0.056033
    134 H54         63.8920   100.5630   -20.7480 hc         1 LIG       0.056033
    135 H55         67.0520   104.0110   -18.2660 ha         1 LIG       0.139000
    136 H56         69.4340   103.9080   -18.7020 ha         1 LIG       0.159000
    137 H57         79.1820    98.4800   -21.7010 h1         1 LIG       0.082700
    138 H58         80.9820    99.2680   -20.0820 ha         1 LIG       0.142500
    139 H59         82.2910   101.2790   -19.6980 ha         1 LIG       0.154000
    140 H60         79.1120   103.6090   -21.2070 ha         1 LIG       0.154000
    141 H61         77.7980   101.5990   -21.5890 ha         1 LIG       0.142500
    142 H62         77.9380    95.9000   -15.9880 hc         1 LIG       0.052367
    143 H63         77.0550    97.4060   -15.9290 hc         1 LIG       0.052367
    144 H64         78.7930    97.4060   -15.7550 hc         1 LIG       0.052367
    145 H65         78.1970   100.4780   -18.6120 hc         1 LIG       0.052700
    146 H66         78.9270    99.8550   -17.1520 hc         1 LIG       0.052700
    147 H67         77.1890    99.8530   -17.3290 hc         1 LIG       0.052700
@<TRIPOS>BOND
     1     1     2 1   
     2     2    12 2   
     3     3    16 1   
     4     3    86 1   
     5     4    29 1   
     6     4   110 1   
     7     5    35 1   
     8     5    38 1   
     9     6    40 1   
    10     6   128 1   
    11     7    48 2   
    12     8    51 1   
    13     8    76 1   
    14    10    11 1   
    15    10    80 1   
    16    10    81 1   
    17    10    82 1   
    18     1    11 2   
    19     9    11 1   
    20     9    12 1   
    21    12    13 1   
    22     8    13 1   
    23    13    14 1   
    24    13    83 1   
    25    14    15 1   
    26    14    84 1   
    27    14    85 1   
    28     3    15 1   
    29    15    74 2   
    30    16    17 1   
    31    16    22 1   
    32    16    87 1   
    33    17    64 1   
    34    17    88 1   
    35    17    89 1   
    36    18    19 1   
    37    18    90 1   
    38    18    91 1   
    39    19    65 1   
    40    19    92 1   
    41    19    93 1   
    42    20    21 1   
    43    20    94 1   
    44    20    95 1   
    45    21    66 1   
    46    21    96 1   
    47    21    97 1   
    48    22    67 1   
    49    22    98 1   
    50    22    99 1   
    51    23    24 1   
    52    23   100 1   
    53    23   101 1   
    54    24    68 1   
    55    24   102 1   
    56    24   103 1   
    57    25    26 1   
    58    25   104 1   
    59    25   105 1   
    60    26    69 1   
    61    26   106 1   
    62    26   107 1   
    63    27    28 1   
    64    27   108 1   
    65    27   109 1   
    66     4    28 1   
    67    28    73 2   
    68    29    30 1   
    69    29    34 1   
    70    29   111 1   
    71    30    31 1   
    72    30    32 1   
    73    30    33 1   
    74    31   112 1   
    75    31   113 1   
    76    31   114 1   
    77    32   115 1   
    78    32   116 1   
    79    32   117 1   
    80    33   118 1   
    81    33   119 1   
    82    33   120 1   
    83     5    34 1   
    84    34    72 2   
    85    35    36 1   
    86    35   121 1   
    87    35   122 1   
    88    36    37 1   
    89    36    70 1   
    90    36   123 1   
    91    37    38 1   
    92    37   125 1   
    93    37   126 1   
    94    38    39 1   
    95    38   127 1   
    96     6    39 1   
    97    39    71 2   
    98    40    41 1   
    99    40   129 1   
   100    40   130 1   
   101    41    42 ar  
   102    41    50 ar  
   103    42    43 ar  
   104    43    44 ar  
   105    43   131 1   
   106    44    45 1   
   107    44    49 ar  
   108    45    46 2   
   109    45    78 1   
   110     7    46 1   
   111    46    47 1   
   112    47   132 1   
   113    47   133 1   
   114    47   134 1   
   115    48    77 1   
   116    48    78 1   
   117    49    50 ar  
   118    49   135 1   
   119    50   136 1   
   120    51    52 1   
   121    51    58 1   
   122    51   137 1   
   123    52    53 ar  
   124    52    57 ar  
   125    53    54 ar  
   126    53   138 1   
   127    54    55 ar  
   128    54   139 1   
   129    55    56 ar  
   130    56    57 ar  
   131    56   140 1   
   132    57   141 1   
   133    58    59 2   
   134    58    62 1   
   135     9    59 1   
   136    59    79 1   
   137    60    61 1   
   138    60    62 2   
   139    61   142 1   
   140    61   143 1   
   141    61   144 1   
   142    62    63 1   
   143    63   145 1   
   144    63   146 1   
   145    63   147 1   
   146    18    64 1   
   147    20    65 1   
   148    42    66 1   
   149    23    67 1   
   150    25    68 1   
   151    27    69 1   
   152    70   124 1   
   153    55    75 1   
   154    60    79 1   
@<TRIPOS>SUBSTRUCTURE
     1 LIG         1 TEMP              0 ****  ****    0 ROOT
