@<TRIPOS>MOLECULE
LIG
   39    40     1     0     0
SMALL
bcc


@<TRIPOS>ATOM
      1 P02          7.5250     2.2630    19.1920 p5         1 LIG       1.228000
      2 O01          6.1300     1.7180    19.0930 o          1 LIG      -0.911500
      3 O03          8.1640     1.5160    18.0520 o          1 LIG      -0.911500
      4 O04          8.2110     1.7790    20.4290 o          1 LIG      -0.911500
      5 C05          7.4980     4.1670    19.1390 ca         1 LIG      -0.163500
      6 C06          7.0190     5.0580    20.1620 ca         1 LIG       0.139100
      7 O07          6.5430     4.6540    21.4680 os         1 LIG      -0.343900
      8 C08          7.4540     3.8700    22.2220 c3         1 LIG       0.033400
      9 C09          8.6620     4.6650    22.7420 c          1 LIG       0.630100
     10 N10          9.9920     4.0620    22.7960 ns         1 LIG      -0.558900
     11 C11         10.3080     2.7050    22.4060 c3         1 LIG       0.080000
     12 C12         11.4840     2.7120    21.4130 c3         1 LIG      -0.094100
     13 C13         12.9120     2.7250    21.9880 ca         1 LIG      -0.035300
     14 C14         13.3530     3.7840    22.7750 ca         1 LIG      -0.137500
     15 C15         14.6670     3.7960    23.2520 ca         1 LIG      -0.141000
     16 C16         15.5430     2.7540    22.9530 ca         1 LIG      -0.169000
     17 C17         15.1020     1.7040    22.1610 ca         1 LIG      -0.141000
     18 C18         13.7920     1.6900    21.6730 ca         1 LIG      -0.137500
     19 O19          8.5260     5.7800    23.1560 o          1 LIG      -0.662100
     20 C20          7.0100     6.4640    19.9560 ca         1 LIG      -0.194000
     21 C21          7.4420     7.0190    18.7530 ca         1 LIG      -0.177000
     22 C22          7.8920     6.1590    17.7310 ca         1 LIG      -0.196000
     23 C23          7.9210     4.7640    17.9290 ca         1 LIG      -0.132000
     24 H01          8.2200     6.5770    16.7790 ha         1 LIG       0.077000
     25 H02          6.6590     7.1200    20.7530 ha         1 LIG       0.102000
     26 H03          8.2810     4.1240    17.1230 ha         1 LIG       0.181000
     27 H04          7.4320     8.0990    18.6050 ha         1 LIG       0.072000
     28 H05         12.6760     4.6020    23.0190 ha         1 LIG       0.142000
     29 H06         15.0100     4.6300    23.8650 ha         1 LIG       0.109000
     30 H07         16.5630     2.7640    23.3370 ha         1 LIG       0.103000
     31 H08         13.4570     0.8660    21.0430 ha         1 LIG       0.142000
     32 H09         15.7800     0.8860    21.9180 ha         1 LIG       0.109000
     33 H081         6.9810     3.4990    22.9840 h1         1 LIG       0.121200
     34 H082         7.7800     3.1510    21.6580 h1         1 LIG       0.121200
     35 H101        10.6380     4.5530    23.0810 hn         1 LIG       0.266500
     36 H111        10.5510     2.1910    23.1920 h1         1 LIG       0.072200
     37 H112         9.5320     2.3010    21.9860 h1         1 LIG       0.072200
     38 H121        11.3880     3.4990    20.8540 hc         1 LIG       0.108200
     39 H122        11.4010     1.9210    20.8580 hc         1 LIG       0.108200
@<TRIPOS>BOND
     1     1     2 1   
     2     1     3 1   
     3     1     4 1   
     4     1     5 1   
     5     5     6 ar  
     6     5    23 ar  
     7     6     7 1   
     8     6    20 ar  
     9     7     8 1   
    10     8     9 1   
    11     8    33 1   
    12     8    34 1   
    13     9    10 1   
    14     9    19 2   
    15    10    11 1   
    16    10    35 1   
    17    11    12 1   
    18    11    36 1   
    19    11    37 1   
    20    12    13 1   
    21    12    38 1   
    22    12    39 1   
    23    13    14 ar  
    24    13    18 ar  
    25    14    15 ar  
    26    14    28 1   
    27    15    16 ar  
    28    15    29 1   
    29    16    17 ar  
    30    16    30 1   
    31    17    18 ar  
    32    17    32 1   
    33    18    31 1   
    34    20    21 ar  
    35    20    25 1   
    36    21    22 ar  
    37    21    27 1   
    38    22    23 ar  
    39    22    24 1   
    40    23    26 1   
@<TRIPOS>SUBSTRUCTURE
     1 LIG         1 TEMP              0 ****  ****    0 ROOT
