# created with PyMOL 2.5.5
@<TRIPOS>MOLECULE
../6ygj_L.pdb
39 40 1                 
SMALL
USER_CHARGES
@<TRIPOS>ATOM
1	 P23	7.611	2.360	18.973	P.3	1	LIG248	0.362	
2	  C1	8.373	3.993	19.177	C.2	1	LIG248	0.105	
3	  C2	8.067	4.734	20.343	C.2	1	LIG248	0.136	
4	  C3	7.668	3.312	22.237	C.3	1	LIG248	0.165	
5	  C4	8.731	3.991	23.116	C.2	1	LIG248	0.251	
6	  C5	10.087	1.822	23.188	C.3	1	LIG248	0.016	
7	  C6	10.828	1.673	21.834	C.3	1	LIG248	-0.012	
8	  C7	11.960	2.659	21.686	C.2	1	LIG248	-0.046	
9	  C8	11.738	3.902	21.057	C.2	1	LIG248	-0.058	
10	  C9	12.760	4.860	20.972	C.2	1	LIG248	-0.062	
11	 C10	14.026	4.591	21.517	C.2	1	LIG248	-0.062	
12	 C11	14.263	3.356	22.145	C.2	1	LIG248	-0.062	
13	 C12	13.237	2.400	22.229	C.2	1	LIG248	-0.058	
14	 C13	8.629	6.000	20.557	C.2	1	LIG248	-0.019	
15	 C14	9.521	6.523	19.606	C.2	1	LIG248	-0.058	
16	 C15	9.843	5.793	18.449	C.2	1	LIG248	-0.061	
17	 C16	9.266	4.533	18.231	C.2	1	LIG248	-0.043	
18	 N17	9.752	3.195	23.560	N.pl3	1	LIG248	-0.312	
19	 O18	6.033	2.641	19.254	 O	1	LIG248	-0.321	
20	 O19	7.637	2.087	17.363	 O	1	LIG248	-0.321	
21	 O20	8.246	1.249	19.774	O.2	1	LIG248	-0.253	
22	 O21	7.138	4.223	21.249	O.3	1	LIG248	-0.482	
23	 O22	8.644	5.179	23.424	O.2	1	LIG248	-0.272	
24	 H24	8.034	2.392	21.737	 H	1	LIG248	0.079	
25	 H25	6.803	3.044	22.878	 H	1	LIG248	0.079	
26	 H26	10.722	1.423	24.006	 H	1	LIG248	0.047	
27	 H27	9.170	1.198	23.182	 H	1	LIG248	0.047	
28	 H28	11.206	0.630	21.779	 H	1	LIG248	0.033	
29	 H29	10.100	1.778	21.003	 H	1	LIG248	0.033	
30	 H30	10.751	4.118	20.626	 H	1	LIG248	0.062	
31	 H31	12.559	5.822	20.476	 H	1	LIG248	0.062	
32	 H32	14.830	5.340	21.450	 H	1	LIG248	0.062	
33	 H33	15.254	3.134	22.570	 H	1	LIG248	0.062	
34	 H34	13.429	1.432	22.718	 H	1	LIG248	0.062	
35	 H35	8.375	6.531	21.483	 H	1	LIG248	0.065	
36	 H36	9.969	7.514	19.774	 H	1	LIG248	0.062	
37	 H37	10.543	6.207	17.708	 H	1	LIG248	0.062	
38	 H38	9.490	3.959	17.320	 H	1	LIG248	0.063	
39	 H39	10.460	3.725	24.077	 H	1	LIG248	0.149	
@<TRIPOS>BOND
1 1 2 1
2 1 19 1
3 1 21 2
4 2 3 ar
5 3 14 ar
6 3 22 1
7 4 5 1
8 4 25 1
9 5 18 1
10 5 23 2
11 6 18 1
12 6 26 1
13 6 7 1
14 7 8 1
15 8 13 ar
16 8 9 ar
17 9 10 ar
18 10 11 ar
19 11 12 ar
20 12 13 ar
21 12 33 1
22 13 34 1
23 14 35 1
24 14 15 ar
25 15 36 1
26 15 16 ar
27 2 17 ar
28 16 17 ar
29 18 39 1
30 1 20 1
31 4 22 1
32 4 24 1
33 6 27 1
34 7 28 1
35 7 29 1
36 9 30 1
37 10 31 1
38 11 32 1
39 16 37 1
40 17 38 1
@<TRIPOS>SUBSTRUCTURE
1	LIG248	1	GROUP	1 ****	LIG
