@<TRIPOS>MOLECULE
../6ygj_L.pdb
 41 42 0 0 0
SMALL
GASTEIGER

@<TRIPOS>ATOM
      1  C1         8.3730    3.9930   19.1770 C.ar  248  LIG248      0.1048
      2  C2         8.0670    4.7340   20.3430 C.ar  248  LIG248      0.1360
      3  C3         7.6680    3.3120   22.2370 C.3   248  LIG248      0.1652
      4  C4         8.7310    3.9910   23.1160 C.2   248  LIG248      0.2507
      5  C5        10.0870    1.8220   23.1880 C.3   248  LIG248      0.0157
      6  C6        10.8280    1.6730   21.8340 C.3   248  LIG248     -0.0121
      7  C7        11.9600    2.6590   21.6860 C.ar  248  LIG248     -0.0459
      8  C8        11.7380    3.9020   21.0570 C.ar  248  LIG248     -0.0585
      9  C9        12.7600    4.8600   20.9720 C.ar  248  LIG248     -0.0615
     10  C10       14.0260    4.5910   21.5170 C.ar  248  LIG248     -0.0617
     11  C11       14.2630    3.3560   22.1450 C.ar  248  LIG248     -0.0615
     12  C12       13.2370    2.4000   22.2290 C.ar  248  LIG248     -0.0585
     13  C13        8.6290    6.0000   20.5570 C.ar  248  LIG248     -0.0190
     14  C14        9.5210    6.5230   19.6060 C.ar  248  LIG248     -0.0583
     15  C15        9.8430    5.7930   18.4490 C.ar  248  LIG248     -0.0607
     16  C16        9.2660    4.5330   18.2310 C.ar  248  LIG248     -0.0433
     17  N17        9.7520    3.1950   23.5600 N.am  248  LIG248     -0.3122
     18  O18        6.0330    2.6410   19.2540 O.3   248  LIG248     -0.3207
     19  O19        7.6370    2.0870   17.3630 O.3   248  LIG248     -0.3207
     20  O20        8.2460    1.2490   19.7740 O.2   248  LIG248     -0.2533
     21  O21        7.1380    4.2230   21.2490 O.3   248  LIG248     -0.4819
     22  O22        8.6440    5.1790   23.4240 O.2   248  LIG248     -0.2721
     23  P23        7.6110    2.3600   18.9730 P.3   248  LIG248      0.3618
     24  H24        8.0340    2.3920   21.7370 H     248  LIG248      0.0795
     25  H25        6.8030    3.0440   22.8780 H     248  LIG248      0.0795
     26  H26       10.7220    1.4230   24.0060 H     248  LIG248      0.0465
     27  H27        9.1700    1.1980   23.1820 H     248  LIG248      0.0465
     28  H28       11.2060    0.6300   21.7790 H     248  LIG248      0.0328
     29  H29       10.1000    1.7780   21.0030 H     248  LIG248      0.0328
     30  H30       10.7510    4.1180   20.6260 H     248  LIG248      0.0620
     31  H31       12.5590    5.8220   20.4760 H     248  LIG248      0.0618
     32  H32       14.8300    5.3400   21.4500 H     248  LIG248      0.0618
     33  H33       15.2540    3.1340   22.5700 H     248  LIG248      0.0618
     34  H34       13.4290    1.4320   22.7180 H     248  LIG248      0.0620
     35  H35        8.3750    6.5310   21.4830 H     248  LIG248      0.0654
     36  H36        9.9690    7.5140   19.7740 H     248  LIG248      0.0619
     37  H37       10.5430    6.2070   17.7080 H     248  LIG248      0.0618
     38  H38        9.4900    3.9590   17.3200 H     248  LIG248      0.0627
     39  H39       10.4600    3.7250   24.0770 H     248  LIG248      0.1488
     40  H40        6.0000    3.2170   20.0610 H     248  LIG248      0.2201
     41  H41        7.9730    1.1780   17.2210 H     248  LIG248      0.2201
@<TRIPOS>BOND
     1    41    19    1
     2    38    16    1
     3    19    23    1
     4    37    15    1
     5    16    15   ar
     6    16     1   ar
     7    15    14   ar
     8    23     1    1
     9    23    18    1
    10    23    20    2
    11     1     2   ar
    12    18    40    1
    13    14    36    1
    14    14    13   ar
    15     2    13   ar
    16     2    21    1
    17    31     9    1
    18    13    35    1
    19    30     8    1
    20     9     8   ar
    21     9    10   ar
    22    29     6    1
    23     8     7   ar
    24    21     3    1
    25    32    10    1
    26    10    11   ar
    27     7     6    1
    28     7    12   ar
    29    24     3    1
    30    28     6    1
    31     6     5    1
    32    11    12   ar
    33    11    33    1
    34    12    34    1
    35     3    25    1
    36     3     4    1
    37     4    22    2
    38     4    17   am
    39    27     5    1
    40     5    17    1
    41     5    26    1
    42    17    39    1
