@<TRIPOS>MOLECULE
LIG
  170   177     1     0     0
SMALL
bcc


@<TRIPOS>ATOM
      1 C           -7.7330    -9.6330    15.2320 ca         1 LIG      -0.120500
      2 C1          -5.9980   -11.4280    14.8430 cc         1 LIG      -0.143400
      3 C2          -6.3720   -12.4560    15.7040 cd         1 LIG       0.355600
      4 S3          -4.3640   -11.7070    14.4840 ss         1 LIG      -0.092300
      5 C4          -4.2210   -13.0940    15.4180 cc         1 LIG       0.367300
      6 N5          -5.3910   -13.3510    15.9870 nd         1 LIG      -0.628000
      7 C6          -6.8450   -10.2530    14.3320 ca         1 LIG      -0.006000
      8 C7          -6.7220    -9.8000    13.0400 ca         1 LIG      -0.120500
      9 C9          -8.5080    -8.5780    14.8240 ca         1 LIG      -0.116000
     10 C10         -7.5170    -8.7190    12.6300 ca         1 LIG      -0.116000
     11 C11         -8.4050    -8.1170    13.5170 ca         1 LIG      -0.114300
     12 C12         -9.2790    -6.9200    13.0360 c3         1 LIG       0.131300
     13 N13         -8.7790    -6.6330    11.7180 ns         1 LIG      -0.551900
     14 C14         -7.8450    -5.5850    11.5230 c          1 LIG       0.650100
     15 O15         -7.4700    -4.9320    12.4590 o          1 LIG      -0.621100
     16 C16         -7.2920    -5.2910    10.1050 c5         1 LIG       0.029700
     17 N17         -7.1050    -3.7080     9.8450 n          1 LIG      -0.455800
     18 C18         -5.8940    -3.4740     9.4180 c5         1 LIG       0.035000
     19 C19         -5.3630    -4.8780     9.0600 c5         1 LIG       0.136100
     20 C20         -6.1200    -5.8020    10.0140 c5         1 LIG      -0.125400
     21 C21         -8.2000    -2.7360    10.0650 c          1 LIG       0.647100
     22 O22         -5.6980    -5.1680     7.7670 oh         1 LIG      -0.586800
     23 O23         -9.2290    -3.1480    10.4520 o          1 LIG      -0.638100
     24 C24         -7.9740    -1.2440     9.8020 c3         1 LIG       0.053700
     25 C25         -7.7580    -0.5160    11.1850 c3         1 LIG      -0.046000
     26 N26         -9.1560    -0.7160     9.2150 ns         1 LIG      -0.557900
     27 C27         -9.0530    -0.5570    12.0000 c3         1 LIG      -0.100767
     28 C28         -6.6400    -1.2300    11.9620 c3         1 LIG      -0.100767
     29 C29         -7.3650     0.9290    10.9380 c3         1 LIG      -0.100767
     30 C30         -9.1920    -0.3780     7.7490 c          1 LIG       0.662100
     31 C31        -10.4890     0.1920     7.1480 c3         1 LIG      -0.151400
     32 C32        -11.2390     1.1940     8.1490 c3         1 LIG      -0.075400
     33 O32         -8.2220    -0.5500     7.0580 o          1 LIG      -0.627100
     34 C33        -10.2350     2.0520     8.9960 c3         1 LIG      -0.086400
     35 C34        -10.6600     3.5640     9.0790 c3         1 LIG      -0.077400
     36 C35         -9.5840     4.5030     8.4990 c3         1 LIG      -0.077400
     37 C36         -8.9100     5.4160     9.6140 c3         1 LIG      -0.083400
     38 C37         -8.3520     6.7120     9.0440 c3         1 LIG      -0.078400
     39 C38         -7.0420     7.1450     9.7360 c3         1 LIG      -0.078400
     40 C39         -7.2960     7.9130    11.0410 c3         1 LIG      -0.157400
     41 C40         -6.2960     7.4990    12.1850 c          1 LIG       0.649100
     42 N41         -6.7920     7.2950    13.5610 ns         1 LIG      -0.544900
     43 O42         -5.1580     7.3530    11.9450 o          1 LIG      -0.621100
     44 C43         -5.8450     6.9030    14.6450 c3         1 LIG       0.082000
     45 C44         -6.3220     7.4460    16.0180 c3         1 LIG       0.137800
     46 N45         -7.5480     7.1130    16.2540 n3         1 LIG      -0.739600
     47 C47         -7.9320     7.6000    17.4710 c6         1 LIG       0.167300
     48 C48         -9.2810     7.0610    17.9380 c6         1 LIG       0.164800
     49 N49         -9.2970     5.6950    17.8800 n3         1 LIG      -0.724600
     50 C50         -9.0540     5.2460    16.6260 c6         1 LIG       0.164800
     51 C51         -7.6970     5.7550    16.1340 c6         1 LIG       0.167300
     52 C52        -10.3420     5.1820    18.4210 c3         1 LIG       0.212100
     53 C53        -11.7010     5.6410    17.7310 ca         1 LIG      -0.121300
     54 C54        -12.4190     6.7380    18.2170 ca         1 LIG      -0.103000
     55 C55        -13.6280     7.1360    17.5950 cp         1 LIG      -0.043000
     56 C56        -14.1220     6.4240    16.4710 ca         1 LIG      -0.114000
     57 C57        -13.4020     5.3180    15.9780 ca         1 LIG      -0.133000
     58 C58        -12.2020     4.9210    16.5950 ca         1 LIG      -0.115000
     59 C59        -14.3700     8.3520    18.1750 cp         1 LIG      -0.012000
     60 C60        -14.1480     8.6360    19.5110 ca         1 LIG      -0.147000
     61 C61        -14.7680     9.7300    20.0810 ca         1 LIG       0.082600
     62 C62        -15.6560    10.5240    19.3220 ca         1 LIG       0.050600
     63 C63        -15.8590    10.2560    17.9730 ca         1 LIG      -0.130000
     64 C64        -15.2150     9.1510    17.3920 ca         1 LIG      -0.135000
     65 N65        -16.2700    11.6870    19.9850 nh         1 LIG      -0.640000
     66 C66        -17.3840    12.3470    19.2950 c6         1 LIG       0.172800
     67 C67        -17.9990    13.4730    20.1040 c6         1 LIG       0.166300
     68 N68        -17.0420    14.4090    20.4920 n3         1 LIG      -0.733600
     69 C69        -16.0370    13.8540    21.2070 c6         1 LIG       0.166300
     70 C70        -15.3460    12.7260    20.4240 c6         1 LIG       0.172800
     71 C71        -17.6050    15.3100    21.2320 c3         1 LIG       0.157100
     72 N72        -14.4850     9.9160    21.4890 ns         1 LIG      -0.447100
     73 C73        -13.1740    10.2910    21.9940 c          1 LIG       0.670300
     74 C74        -13.1060    10.3230    23.5580 ce         1 LIG      -0.230800
     75 C75        -13.7380     9.2210    24.1920 ce         1 LIG       0.541500
     76 N76        -13.7530     9.0950    25.5220 nf         1 LIG      -0.603100
     77 C77        -13.1730    10.0080    26.2880 c          1 LIG       0.682500
     78 C78        -12.5310    11.1340    25.7370 c6         1 LIG      -0.179200
     79 C79        -12.4840    11.2960    24.3100 c2         1 LIG      -0.106400
     80 C80        -11.7930    12.5000    23.6570 c3         1 LIG       0.669100
     81 O85        -12.2300    10.4540    21.3050 o          1 LIG      -0.571100
     82 O86        -13.2190     9.8330    27.6660 o          1 LIG      -0.478100
     83 C87         -7.7780   -12.6040    16.2740 c3         1 LIG      -0.128400
     84 F82        -11.4210    13.3930    24.6230 f          1 LIG      -0.223967
     85 F83        -10.6840    12.0730    22.9780 f          1 LIG      -0.223967
     86 F84        -12.6490    13.0990    22.7930 f          1 LIG      -0.223967
     87 H01         -7.8050    -9.9940    16.2580 ha         1 LIG       0.137500
     88 H02         -3.3140   -13.6870    15.5370 h5         1 LIG       0.054100
     89 H03         -6.0220   -10.2700    12.3490 ha         1 LIG       0.137500
     90 H04         -9.2000    -8.1040    15.5200 ha         1 LIG       0.145500
     91 H05         -7.4390    -8.3470    11.6080 ha         1 LIG       0.145500
     92 H06         -9.2190    -6.0610    13.7040 h1         1 LIG       0.067700
     93 H07        -10.3320    -7.1980    13.0000 h1         1 LIG       0.067700
     94 H08         -9.0940    -7.1800    10.9300 hn         1 LIG       0.335500
     95 H09         -8.0010    -5.7030     9.3870 h1         1 LIG       0.085700
     96 H10         -5.2750    -2.9600    10.1540 h1         1 LIG       0.075200
     97 H11         -5.9070    -2.8260     8.5420 h1         1 LIG       0.075200
     98 H12         -4.2810    -4.9710     9.1500 h1         1 LIG       0.095700
     99 H13         -6.1470    -6.8310     9.6550 hc         1 LIG       0.083200
    100 H14         -5.6350    -5.8280    10.9900 hc         1 LIG       0.083200
    101 H15         -5.9510    -6.0920     7.7010 ho         1 LIG       0.405000
    102 H16         -7.1120    -1.0990     9.1510 h1         1 LIG       0.096700
    103 H17         -9.9760    -0.5670     9.7850 hn         1 LIG       0.325500
    104 H18         -9.8620    -0.9390    11.3770 hc         1 LIG       0.046144
    105 H19         -8.9200    -1.2100    12.8620 hc         1 LIG       0.046144
    106 H20         -9.3010     0.4480    12.3400 hc         1 LIG       0.046144
    107 H21         -5.7910    -0.5560    12.0780 hc         1 LIG       0.046144
    108 H22         -7.0090    -1.5210    12.9460 hc         1 LIG       0.046144
    109 H23         -6.3260    -2.1180    11.4140 hc         1 LIG       0.046144
    110 H24         -6.3940     0.9610    10.4440 hc         1 LIG       0.046144
    111 H25         -8.1110     1.4060    10.3020 hc         1 LIG       0.046144
    112 H26         -7.3060     1.4580    11.8890 hc         1 LIG       0.046144
    113 H27        -11.1600    -0.6450     6.9520 hc         1 LIG       0.076200
    114 H28        -10.2440     0.7300     6.2320 hc         1 LIG       0.076200
    115 H29        -11.8300     0.5940     8.8410 hc         1 LIG       0.044700
    116 H30        -11.8700     1.8650     7.5670 hc         1 LIG       0.044700
    117 H31         -9.2630     2.0070     8.5050 hc         1 LIG       0.050200
    118 H32        -10.1900     1.6440    10.0060 hc         1 LIG       0.050200
    119 H33        -10.7930     3.8170    10.1310 hc         1 LIG       0.039700
    120 H34        -11.5850     3.7010     8.5190 hc         1 LIG       0.039700
    121 H35        -10.0710     5.1620     7.7800 hc         1 LIG       0.041200
    122 H36         -8.8100     3.8990     8.0250 hc         1 LIG       0.041200
    123 H37         -8.0780     4.8570    10.0430 hc         1 LIG       0.043700
    124 H38         -9.6590     5.6580    10.3680 hc         1 LIG       0.043700
    125 H39         -9.0910     7.4950     9.2150 hc         1 LIG       0.042700
    126 H40         -8.1570     6.5720     7.9810 hc         1 LIG       0.042700
    127 H41         -6.5120     7.8120     9.0560 hc         1 LIG       0.048700
    128 H42         -6.4540     6.2560     9.9610 hc         1 LIG       0.048700
    129 H43         -8.3040     7.6720    11.3780 hc         1 LIG       0.071700
    130 H44         -7.1850     8.9800    10.8470 hc         1 LIG       0.071700
    131 H45         -7.7720     7.4210    13.7680 hn         1 LIG       0.313500
    132 H46         -4.8660     7.3280    14.4230 h1         1 LIG       0.064700
    133 H47         -5.7850     5.8160    14.6920 h1         1 LIG       0.064700
    134 H48         -6.2590     8.5340    15.9980 h1         1 LIG       0.043700
    135 H49         -5.6850     7.0380    16.8030 h1         1 LIG       0.043700
    136 H50         -8.0340     8.6800    17.3690 h1         1 LIG       0.038450
    137 H51         -7.1760     7.3280    18.2080 h1         1 LIG       0.038450
    138 H52        -10.0610     7.4500    17.2840 h1         1 LIG       0.040200
    139 H53         -9.4590     7.3790    18.9650 h1         1 LIG       0.040200
    140 H54         -9.8340     5.6150    15.9600 h1         1 LIG       0.040200
    141 H55         -9.0510     4.1560    16.6280 h1         1 LIG       0.040200
    142 H56         -6.9340     5.2920    16.7600 h1         1 LIG       0.038450
    143 H57         -7.5870     5.4860    15.0830 h1         1 LIG       0.038450
    144 H58        -10.3730     5.5290    19.4540 h1         1 LIG       0.061200
    145 H59        -10.2690     4.0970    18.3540 h1         1 LIG       0.061200
    146 H60        -12.0460     7.2900    19.0800 ha         1 LIG       0.141000
    147 H61        -15.0520     6.7310    15.9930 ha         1 LIG       0.135000
    148 H62        -13.7760     4.7680    15.1150 ha         1 LIG       0.134000
    149 H63        -11.6510     4.0640    16.2090 ha         1 LIG       0.133000
    150 H64        -13.4910     8.0030    20.1070 ha         1 LIG       0.177000
    151 H65        -16.5090    10.8940    17.3740 ha         1 LIG       0.140000
    152 H66        -15.3710     8.9160    16.3390 ha         1 LIG       0.140000
    153 H67        -18.1600    11.5970    19.1380 h1         1 LIG       0.044700
    154 H68        -17.0170    12.7550    18.3530 h1         1 LIG       0.044700
    155 H69        -18.4400    13.0440    21.0040 h1         1 LIG       0.038950
    156 H70        -18.7570    13.9710    19.4990 h1         1 LIG       0.038950
    157 H71        -16.4590    13.4290    22.1180 h1         1 LIG       0.038950
    158 H72        -15.3020    14.6240    21.4440 h1         1 LIG       0.038950
    159 H73        -14.9080    13.1710    19.5300 h1         1 LIG       0.044700
    160 H74        -14.5900    12.2710    21.0640 h1         1 LIG       0.044700
    161 H75        -18.6010    14.9730    21.5200 h1         1 LIG       0.034033
    162 H76        -17.0050    15.4730    22.1270 h1         1 LIG       0.034033
    163 H77        -17.6850    16.2420    20.6730 h1         1 LIG       0.034033
    164 H78        -15.2340     9.7790    22.1520 hn         1 LIG       0.345500
    165 H79        -14.2220     8.4600    23.5800 h4         1 LIG       0.066800
    166 H80        -11.4860    10.9910    26.0120 hc         1 LIG       0.118200
    167 H81        -13.0320    12.0140    26.1400 hc         1 LIG       0.118200
    168 H82         -8.4800   -12.7990    15.4630 hc         1 LIG       0.054700
    169 H83         -7.7990   -13.4340    16.9800 hc         1 LIG       0.054700
    170 H84         -8.0620   -11.6840    16.7860 hc         1 LIG       0.054700
@<TRIPOS>BOND
     1     1     7 ar  
     2     1     9 ar  
     3     1    87 1   
     4     2     3 2   
     5     2     4 1   
     6     2     7 1   
     7     3     6 1   
     8     3    83 1   
     9     4     5 1   
    10     5     6 2   
    11     5    88 1   
    12     7     8 ar  
    13     8    10 ar  
    14     8    89 1   
    15     9    11 ar  
    16     9    90 1   
    17    10    11 ar  
    18    10    91 1   
    19    11    12 1   
    20    12    13 1   
    21    12    92 1   
    22    12    93 1   
    23    13    14 1   
    24    13    94 1   
    25    14    15 2   
    26    14    16 1   
    27    16    17 1   
    28    16    20 1   
    29    16    95 1   
    30    17    18 1   
    31    17    21 1   
    32    18    19 1   
    33    18    96 1   
    34    18    97 1   
    35    19    20 1   
    36    19    22 1   
    37    19    98 1   
    38    20    99 1   
    39    20   100 1   
    40    21    23 2   
    41    21    24 1   
    42    22   101 1   
    43    24    25 1   
    44    24    26 1   
    45    24   102 1   
    46    25    27 1   
    47    25    28 1   
    48    25    29 1   
    49    26    30 1   
    50    26   103 1   
    51    27   104 1   
    52    27   105 1   
    53    27   106 1   
    54    28   107 1   
    55    28   108 1   
    56    28   109 1   
    57    29   110 1   
    58    29   111 1   
    59    29   112 1   
    60    30    31 1   
    61    30    33 2   
    62    31    32 1   
    63    31   113 1   
    64    31   114 1   
    65    32    34 1   
    66    32   115 1   
    67    32   116 1   
    68    34    35 1   
    69    34   117 1   
    70    34   118 1   
    71    35    36 1   
    72    35   119 1   
    73    35   120 1   
    74    36    37 1   
    75    36   121 1   
    76    36   122 1   
    77    37    38 1   
    78    37   123 1   
    79    37   124 1   
    80    38    39 1   
    81    38   125 1   
    82    38   126 1   
    83    39    40 1   
    84    39   127 1   
    85    39   128 1   
    86    40    41 1   
    87    40   129 1   
    88    40   130 1   
    89    41    42 1   
    90    41    43 2   
    91    42    44 1   
    92    42   131 1   
    93    44    45 1   
    94    44   132 1   
    95    44   133 1   
    96    45    46 1   
    97    45   134 1   
    98    45   135 1   
    99    46    47 1   
   100    46    51 1   
   101    47    48 1   
   102    47   136 1   
   103    47   137 1   
   104    48    49 1   
   105    48   138 1   
   106    48   139 1   
   107    49    50 1   
   108    49    52 1   
   109    50    51 1   
   110    50   140 1   
   111    50   141 1   
   112    51   142 1   
   113    51   143 1   
   114    52    53 1   
   115    52   144 1   
   116    52   145 1   
   117    53    54 ar  
   118    53    58 ar  
   119    54    55 ar  
   120    54   146 1   
   121    55    56 ar  
   122    55    59 1   
   123    56    57 ar  
   124    56   147 1   
   125    57    58 ar  
   126    57   148 1   
   127    58   149 1   
   128    59    60 ar  
   129    59    64 ar  
   130    60    61 ar  
   131    60   150 1   
   132    61    62 ar  
   133    61    72 1   
   134    62    63 ar  
   135    62    65 1   
   136    63    64 ar  
   137    63   151 1   
   138    64   152 1   
   139    65    66 1   
   140    65    70 1   
   141    66    67 1   
   142    66   153 1   
   143    66   154 1   
   144    67    68 1   
   145    67   155 1   
   146    67   156 1   
   147    68    69 1   
   148    68    71 1   
   149    69    70 1   
   150    69   157 1   
   151    69   158 1   
   152    70   159 1   
   153    70   160 1   
   154    71   161 1   
   155    71   162 1   
   156    71   163 1   
   157    72    73 1   
   158    72   164 1   
   159    73    74 1   
   160    73    81 2   
   161    74    75 1   
   162    74    79 2   
   163    75    76 2   
   164    75   165 1   
   165    76    77 1   
   166    77    78 1   
   167    77    82 2   
   168    78    79 1   
   169    78   166 1   
   170    78   167 1   
   171    79    80 1   
   172    80    84 1   
   173    80    85 1   
   174    80    86 1   
   175    83   168 1   
   176    83   169 1   
   177    83   170 1   
@<TRIPOS>SUBSTRUCTURE
     1 LIG         1 TEMP              0 ****  ****    0 ROOT
