@<TRIPOS>MOLECULE
LIG
  132   138     1     0     0
SMALL
bcc


@<TRIPOS>ATOM
      1 N           14.0860    15.4950   -14.2950 n3         1 LIG      -0.725600
      2 C           14.9340    16.2550   -15.2190 c3         1 LIG       0.153100
      3 O           10.2960     8.8020   -20.3010 o          1 LIG      -0.602500
      4 C1          12.8520    14.9820   -14.9360 c6         1 LIG       0.180500
      5 N1          12.7300    13.0950   -13.3010 nh         1 LIG      -0.638000
      6 O1           9.0450    12.1570   -15.0930 o          1 LIG      -0.589100
      7 C2          12.0370    16.0910   -15.5820 c3         1 LIG      -0.095100
      8 N2          11.0880    11.2550   -14.6520 ns         1 LIG      -0.453100
      9 O2           5.1520     1.7120    -7.1310 o          1 LIG      -0.619100
     10 C3          11.9940    14.1530   -13.9950 c6         1 LIG       0.173300
     11 N3          10.4490     8.9270   -18.0590 ns         1 LIG      -0.429100
     12 O3           0.2880     3.4150    -6.7270 oh         1 LIG      -0.587800
     13 C4          14.8150    14.4190   -13.5940 c6         1 LIG       0.180500
     14 N4           4.4710     8.1460   -10.6170 ns         1 LIG      -0.567900
     15 O4           4.7940     4.4240    -8.4070 o          1 LIG      -0.636100
     16 C5          16.0510    14.9460   -12.8800 c3         1 LIG      -0.095100
     17 N5           3.6860     5.5330   -10.6100 ns         1 LIG      -0.549900
     18 O5           1.6080     6.0440   -11.3320 o          1 LIG      -0.629100
     19 C6          13.9180    13.6390   -12.6410 c6         1 LIG       0.173300
     20 N6           2.9410     3.2150    -8.0630 n          1 LIG      -0.456800
     21 O6           5.7030     8.0860   -12.4880 o          1 LIG      -0.610100
     22 C7          11.8770    12.2410   -12.5620 ca         1 LIG       0.057600
     23 N7           5.2730     3.0370    -5.3040 ns         1 LIG      -0.560900
     24 C8          11.0120    11.3770   -13.2530 ca         1 LIG       0.085600
     25 N8           6.3670    -2.5910     1.3570 nc         1 LIG      -0.627000
     26 C9          10.0310    11.5190   -15.4590 c          1 LIG       0.690300
     27 C10         10.1060    10.9210   -16.8260 cc         1 LIG      -0.255200
     28 C11         10.4250     9.6020   -16.8840 cd         1 LIG       0.082600
     29 C12         10.1650     9.4900   -19.2720 c          1 LIG       0.682700
     30 C13          9.8070    10.8800   -19.2330 cd         1 LIG      -0.206200
     31 C14          9.7710    11.5790   -18.0800 cc         1 LIG      -0.039200
     32 C15          9.3660    13.0090   -18.1050 c3         1 LIG       0.678100
     33 C16         10.0720    10.6220   -12.5600 ca         1 LIG      -0.135000
     34 C17          9.9820    10.6920   -11.1730 cp         1 LIG      -0.028000
     35 C18          8.9540     9.8980   -10.4480 cp         1 LIG      -0.070000
     36 C19          7.7650     9.5600   -11.1110 ca         1 LIG      -0.042000
     37 C20          6.8060     8.7560   -10.4970 ca         1 LIG      -0.159600
     38 C21          5.6180     8.2960   -11.2810 c          1 LIG       0.677700
     39 C22          3.2390     7.8040   -11.3060 c3         1 LIG       0.027000
     40 C23          2.7660     6.3770   -11.0850 c          1 LIG       0.633100
     41 C24          3.4120     4.1360   -10.3240 c3         1 LIG       0.057700
     42 C25          4.1930     3.2110   -11.3020 c3         1 LIG      -0.048000
     43 C26          5.6660     3.6340   -11.3310 c3         1 LIG      -0.099100
     44 C27          3.6110     3.3400   -12.7090 c3         1 LIG      -0.099100
     45 C28          4.1070     1.7400   -10.8830 c3         1 LIG      -0.099100
     46 C29          3.7690     3.9310    -8.8440 c          1 LIG       0.648100
     47 C30          3.2480     3.0710    -6.6350 c5         1 LIG       0.029700
     48 C31          4.6510     2.5470    -6.3810 c          1 LIG       0.658100
     49 C32          6.5650     2.5280    -4.8400 c3         1 LIG       0.143000
     50 C33          7.4440     3.6900    -4.3810 c3         1 LIG      -0.104100
     51 C34          6.3800     1.5040    -3.7430 ca         1 LIG      -0.097300
     52 C35          5.2020     1.4290    -3.0160 ca         1 LIG      -0.117500
     53 C36          5.0640     0.5270    -1.9750 ca         1 LIG      -0.118000
     54 C37          6.1050    -0.3300    -1.6370 ca         1 LIG      -0.008000
     55 C38          5.9670    -1.2910    -0.5220 cd         1 LIG      -0.143400
     56 C39          6.8420    -1.6450     0.4740 cc         1 LIG       0.356600
     57 C40          8.2250    -1.1140     0.6840 c3         1 LIG      -0.128400
     58 C41          5.1620    -2.9490     1.0410 cd         1 LIG       0.368300
     59 C42          7.2780    -0.2630    -2.3740 ca         1 LIG      -0.118000
     60 C43          7.4100     0.6410    -3.4100 ca         1 LIG      -0.117500
     61 C44          2.2000     2.0570    -6.1460 c5         1 LIG      -0.124400
     62 C45          1.0370     2.2550    -7.1030 c5         1 LIG       0.137100
     63 C46          1.7220     2.4920    -8.4440 c5         1 LIG       0.035000
     64 C47          7.0070     8.3210    -9.1910 ca         1 LIG      -0.076000
     65 C48          8.1660     8.6520    -8.5100 ca         1 LIG      -0.175000
     66 C49          9.1080     9.4160    -9.1520 ca         1 LIG       0.160900
     67 C50         10.8740    11.5280   -10.4990 ca         1 LIG      -0.124000
     68 C51         11.8100    12.2910   -11.1750 ca         1 LIG      -0.132000
     69 F            9.3610    13.5080   -19.3180 f          1 LIG      -0.226633
     70 F1           8.1500    13.2050   -17.5950 f          1 LIG      -0.226633
     71 F2          10.1840    13.7790   -17.4070 f          1 LIG      -0.226633
     72 F3          10.2560     9.6790    -8.4930 f          1 LIG      -0.129900
     73 H01         15.9030    15.7640   -15.3090 h1         1 LIG       0.033700
     74 H02         14.4570    16.2980   -16.1980 h1         1 LIG       0.033700
     75 H03         15.0730    17.2660   -14.8370 h1         1 LIG       0.033700
     76 H04         13.1900    14.3130   -15.7270 h1         1 LIG       0.028200
     77 H05         11.1170    16.2420   -15.0170 hc         1 LIG       0.042533
     78 H06         12.6170    17.0140   -15.5850 hc         1 LIG       0.042533
     79 H07         11.7910    15.8120   -16.6070 hc         1 LIG       0.042533
     80 H08         11.9590    10.9610   -15.0700 hn         1 LIG       0.343500
     81 H09         11.2360    13.6630   -14.6060 h1         1 LIG       0.044950
     82 H10         11.5610    14.8180   -13.2480 h1         1 LIG       0.044950
     83 H11          0.1480     3.9700    -7.4980 ho         1 LIG       0.406000
     84 H12         15.1500    13.7220   -14.3620 h1         1 LIG       0.028200
     85 H13          4.4590     8.2730    -9.6150 hn         1 LIG       0.322500
     86 H14         16.8360    15.1410   -13.6100 hc         1 LIG       0.042533
     87 H15         15.8030    15.8700   -12.3580 hc         1 LIG       0.042533
     88 H16         16.4000    14.2040   -12.1610 hc         1 LIG       0.042533
     89 H17          4.6180     5.8840   -10.4410 hn         1 LIG       0.350500
     90 H18         14.4960    12.7980   -12.2590 h1         1 LIG       0.044950
     91 H19         13.5980    14.3040   -11.8390 h1         1 LIG       0.044950
     92 H20          4.8340     3.7880    -4.7900 hn         1 LIG       0.335500
     93 H21         10.6920     7.9470   -18.0370 hn         1 LIG       0.347500
     94 H22          9.5560    11.3870   -20.1650 ha         1 LIG       0.188000
     95 H23          9.3970     9.9670   -13.1100 ha         1 LIG       0.177000
     96 H24          7.5880     9.9310   -12.1210 ha         1 LIG       0.168000
     97 H25          3.4450     7.8990   -12.3720 h1         1 LIG       0.091200
     98 H26          2.4570     8.4800   -10.9600 h1         1 LIG       0.091200
     99 H27          2.3660     3.8710   -10.4800 h1         1 LIG       0.087700
    100 H28          6.2630     2.8390   -11.7770 hc         1 LIG       0.045700
    101 H29          5.7720     4.5430   -11.9230 hc         1 LIG       0.045700
    102 H30          6.0110     3.8200   -10.3140 hc         1 LIG       0.045700
    103 H31          2.7240     3.9730   -12.6780 hc         1 LIG       0.045700
    104 H32          4.3530     3.7870   -13.3700 hc         1 LIG       0.045700
    105 H33          3.3390     2.3530   -13.0820 hc         1 LIG       0.045700
    106 H34          3.1040     1.3630   -11.0850 hc         1 LIG       0.045700
    107 H35          4.8340     1.1570   -11.4480 hc         1 LIG       0.045700
    108 H36          4.3190     1.6520    -9.8180 hc         1 LIG       0.045700
    109 H37          3.2130     4.0300    -6.1190 h1         1 LIG       0.083700
    110 H38          7.0660     2.0250    -5.6670 h1         1 LIG       0.092700
    111 H39          8.3630     3.7030    -4.9670 hc         1 LIG       0.044033
    112 H40          6.9090     4.6290    -4.5240 hc         1 LIG       0.044033
    113 H41          7.6880     3.5670    -3.3260 hc         1 LIG       0.044033
    114 H42          4.3720     2.0900    -3.2680 ha         1 LIG       0.139500
    115 H43          4.1300     0.4880    -1.4150 ha         1 LIG       0.138500
    116 H44          8.8880    -1.5150    -0.0830 hc         1 LIG       0.055033
    117 H45          8.2110    -0.0260     0.6180 hc         1 LIG       0.055033
    118 H46          8.5850    -1.4140     1.6680 hc         1 LIG       0.055033
    119 H47          4.6100    -3.6900     1.6190 h5         1 LIG       0.054100
    120 H48          8.1050    -0.9310    -2.1330 ha         1 LIG       0.138500
    121 H49          8.3410     0.6750    -3.9750 ha         1 LIG       0.139500
    122 H50          1.9200     2.2070    -5.1030 hc         1 LIG       0.083200
    123 H51          2.5850     1.0390    -6.2060 hc         1 LIG       0.083200
    124 H52          0.3420     1.4150    -7.1160 h1         1 LIG       0.095700
    125 H53          1.9200     1.5730    -8.9960 h1         1 LIG       0.074700
    126 H54          1.0970     3.0940    -9.1040 h1         1 LIG       0.074700
    127 H55          6.2460     7.7150    -8.7000 ha         1 LIG       0.143000
    128 H56          8.3270     8.3130    -7.4870 ha         1 LIG       0.156000
    129 H57         10.8320    11.5810    -9.4110 ha         1 LIG       0.143000
    130 H58         12.4950    12.9310   -10.6190 ha         1 LIG       0.142000
    131 H59         10.6680     9.0730   -15.9620 h4         1 LIG       0.185000
    132 S            4.4840    -2.1870    -0.3430 ss         1 LIG      -0.095300
@<TRIPOS>BOND
     1     1     2 1   
     2     1     4 1   
     3     1    13 1   
     4     2    73 1   
     5     2    74 1   
     6     2    75 1   
     7     3    29 2   
     8     4     7 1   
     9     4    10 1   
    10     4    76 1   
    11     5    10 1   
    12     5    19 1   
    13     5    22 1   
    14     6    26 2   
    15     7    77 1   
    16     7    78 1   
    17     7    79 1   
    18     8    24 1   
    19     8    26 1   
    20     8    80 1   
    21     9    48 2   
    22    10    81 1   
    23    10    82 1   
    24    11    28 1   
    25    11    29 1   
    26    11    93 1   
    27    12    62 1   
    28    12    83 1   
    29    13    16 1   
    30    13    19 1   
    31    13    84 1   
    32    14    38 1   
    33    14    39 1   
    34    14    85 1   
    35    15    46 2   
    36    16    86 1   
    37    16    87 1   
    38    16    88 1   
    39    17    40 1   
    40    17    41 1   
    41    17    89 1   
    42    18    40 2   
    43    19    90 1   
    44    19    91 1   
    45    20    46 1   
    46    20    47 1   
    47    20    63 1   
    48    21    38 2   
    49    22    24 ar  
    50    22    68 ar  
    51    23    48 1   
    52    23    49 1   
    53    23    92 1   
    54    24    33 ar  
    55    25    56 1   
    56    25    58 2   
    57    26    27 1   
    58    27    28 2   
    59    27    31 1   
    60    28   131 1   
    61    29    30 1   
    62    30    31 2   
    63    30    94 1   
    64    31    32 1   
    65    32    69 1   
    66    32    70 1   
    67    32    71 1   
    68    33    34 ar  
    69    33    95 1   
    70    34    35 1   
    71    34    67 ar  
    72    35    36 ar  
    73    35    66 ar  
    74    36    37 ar  
    75    36    96 1   
    76    37    38 1   
    77    37    64 ar  
    78    39    40 1   
    79    39    97 1   
    80    39    98 1   
    81    41    42 1   
    82    41    46 1   
    83    41    99 1   
    84    42    43 1   
    85    42    44 1   
    86    42    45 1   
    87    43   100 1   
    88    43   101 1   
    89    43   102 1   
    90    44   103 1   
    91    44   104 1   
    92    44   105 1   
    93    45   106 1   
    94    45   107 1   
    95    45   108 1   
    96    47    48 1   
    97    47    61 1   
    98    47   109 1   
    99    49    50 1   
   100    49    51 1   
   101    49   110 1   
   102    50   111 1   
   103    50   112 1   
   104    50   113 1   
   105    51    52 ar  
   106    51    60 ar  
   107    52    53 ar  
   108    52   114 1   
   109    53    54 ar  
   110    53   115 1   
   111    54    55 1   
   112    54    59 ar  
   113    55    56 2   
   114    55   132 1   
   115    56    57 1   
   116    57   116 1   
   117    57   117 1   
   118    57   118 1   
   119    58   119 1   
   120    58   132 1   
   121    59    60 ar  
   122    59   120 1   
   123    60   121 1   
   124    61    62 1   
   125    61   122 1   
   126    61   123 1   
   127    62    63 1   
   128    62   124 1   
   129    63   125 1   
   130    63   126 1   
   131    64    65 ar  
   132    64   127 1   
   133    65    66 ar  
   134    65   128 1   
   135    66    72 1   
   136    67    68 ar  
   137    67   129 1   
   138    68   130 1   
@<TRIPOS>SUBSTRUCTURE
     1 LIG         1 TEMP              0 ****  ****    0 ROOT
