# created with PyMOL 2.5.5
@<TRIPOS>MOLECULE
CSO
15 14 1                 
SMALL
USER_CHARGES
@<TRIPOS>ATOM
1	 H03	-0.022	1.809	-0.373	 H	1	CSO0	0.000	
2	   H	-0.822	1.475	1.029	 H	1	CSO0	0.000	
3	 H02	0.749	1.974	1.076	 H	1	CSO0	0.000	
4	   N	0.071	1.432	0.559	N.4	1	CSO0	0.000	
5	  CA	0.516	0.035	0.481	C.3	1	CSO0	0.000	
6	  CB	-0.372	-0.730	-0.502	C.3	1	CSO0	0.000	
7	  SG	-2.093	-0.674	0.068	S.3	1	CSO0	0.000	
8	   C	1.946	-0.012	0.008	C.2	1	CSO0	0.000	
9	   O	2.420	0.934	-0.576	O.co2	1	CSO0	0.000	
10	 OXT	2.693	-1.104	0.234	O.co2	1	CSO0	0.000	
11	  OD	-2.519	0.748	-0.267	O.3	1	CSO0	0.000	
12	  HA	0.445	-0.424	1.467	 H	1	CSO0	0.000	
13	 HB2	-0.301	-0.271	-1.488	 H	1	CSO0	0.000	
14	 HB3	-0.042	-1.767	-0.560	 H	1	CSO0	0.000	
15	  HD	-3.432	0.953	-0.024	 H	1	CSO0	0.000	
@<TRIPOS>BOND
1 1 4 1
2 2 4 1
3 3 4 1
4 4 5 1
5 5 6 1
6 5 8 1
7 5 12 1
8 6 7 1
9 6 13 1
10 6 14 1
11 7 11 1
12 8 9 2
13 8 10 1
14 11 15 1
@<TRIPOS>SUBSTRUCTURE
1	CSO0	1	GROUP	1 ****	CSO
