# created with PyMOL 2.5.5
@<TRIPOS>MOLECULE
SEP
17 16 1                 
SMALL
USER_CHARGES
@<TRIPOS>ATOM
1	 H01	2.299	1.280	2.043	 H	1	SEP0	0.000	
2	 H02	2.066	-0.310	2.415	 H	1	SEP0	0.000	
3	 H03	2.200	0.158	0.839	 H	1	SEP0	0.000	
4	   N	1.855	0.421	1.751	N.4	1	SEP0	0.000	
5	  CA	0.401	0.620	1.687	C.3	1	SEP0	0.000	
6	  CB	-0.139	0.015	0.391	C.3	1	SEP0	0.000	
7	  OG	0.477	0.655	-0.727	O.3	1	SEP0	0.000	
8	   C	-0.249	-0.053	2.867	C.2	1	SEP0	0.000	
9	   O	0.254	-1.038	3.354	O.co2	1	SEP0	0.000	
10	 OXT	-1.389	0.439	3.377	O.co2	1	SEP0	0.000	
11	   P	-0.135	-0.027	-2.050	P.3	1	SEP0	0.000	
12	 O1P	-1.601	0.172	-2.074	O.co2	1	SEP0	0.000	
13	 O2P	0.520	0.649	-3.356	O.co2	1	SEP0	0.000	
14	 O3P	0.191	-1.603	-2.041	O.co2	1	SEP0	0.000	
15	  HA	0.179	1.687	1.711	 H	1	SEP0	0.000	
16	 HB2	0.082	-1.051	0.367	 H	1	SEP0	0.000	
17	 HB3	-1.218	0.163	0.344	 H	1	SEP0	0.000	
@<TRIPOS>BOND
1 1 4 1
2 2 4 1
3 3 4 1
4 4 5 1
5 5 6 1
6 5 8 1
7 5 15 1
8 6 7 1
9 6 16 1
10 6 17 1
11 7 11 1
12 8 9 2
13 8 10 1
14 11 12 2
15 11 13 1
16 11 14 1
@<TRIPOS>SUBSTRUCTURE
1	SEP0	1	GROUP	1 ****	SEP
