# created with PyMOL 2.5.5
@<TRIPOS>MOLECULE
7jtp
73 79 1                 
SMALL
USER_CHARGES
@<TRIPOS>ATOM
1	   N	14.086	15.495	-14.295	N.3	1	X6M402	0.000	
2	   C	14.934	16.255	-15.219	C.3	1	X6M402	0.000	
3	   O	10.296	8.802	-20.301	O.2	1	X6M402	0.000	
4	  C1	12.852	14.982	-14.936	C.3	1	X6M402	0.000	
5	  N1	12.730	13.095	-13.301	N.pl3	1	X6M402	0.000	
6	  O1	9.045	12.157	-15.093	O.2	1	X6M402	0.000	
7	  C2	12.037	16.091	-15.582	C.3	1	X6M402	0.000	
8	  N2	11.088	11.255	-14.652	N.pl3	1	X6M402	0.000	
9	  O2	5.152	1.712	-7.131	O.2	1	X6M402	0.000	
10	  C3	11.994	14.153	-13.995	C.3	1	X6M402	0.000	
11	  N3	10.449	8.927	-18.059	N.2	1	X6M402	0.000	
12	  O3	0.288	3.415	-6.727	O.3	1	X6M402	0.000	
13	  C4	14.815	14.419	-13.594	C.3	1	X6M402	0.000	
14	  N4	4.471	8.146	-10.617	N.pl3	1	X6M402	0.000	
15	  O4	4.794	4.424	-8.407	O.2	1	X6M402	0.000	
16	  C5	16.051	14.946	-12.880	C.3	1	X6M402	0.000	
17	  N5	3.686	5.533	-10.610	N.pl3	1	X6M402	0.000	
18	  O5	1.608	6.044	-11.332	O.2	1	X6M402	0.000	
19	  C6	13.918	13.639	-12.641	C.3	1	X6M402	0.000	
20	  N6	2.941	3.215	-8.063	N.pl3	1	X6M402	0.000	
21	  O6	5.703	8.086	-12.488	O.2	1	X6M402	0.000	
22	  C7	11.877	12.241	-12.562	C.2	1	X6M402	0.000	
23	  N7	5.273	3.037	-5.304	N.pl3	1	X6M402	0.000	
24	  C8	11.012	11.377	-13.253	C.2	1	X6M402	0.000	
25	  N8	6.367	-2.591	1.357	N.2	1	X6M402	0.000	
26	  C9	10.031	11.519	-15.459	C.2	1	X6M402	0.000	
27	 C10	10.106	10.921	-16.826	C.2	1	X6M402	0.000	
28	 C11	10.425	9.602	-16.884	C.2	1	X6M402	0.000	
29	 C12	10.165	9.490	-19.272	C.2	1	X6M402	0.000	
30	 C13	9.807	10.880	-19.233	C.2	1	X6M402	0.000	
31	 C14	9.771	11.579	-18.080	C.2	1	X6M402	0.000	
32	 C15	9.366	13.009	-18.105	C.3	1	X6M402	0.000	
33	 C16	10.072	10.622	-12.560	C.2	1	X6M402	0.000	
34	 C17	9.982	10.692	-11.173	C.2	1	X6M402	0.000	
35	 C18	8.954	9.898	-10.448	C.2	1	X6M402	0.000	
36	 C19	7.765	9.560	-11.111	C.2	1	X6M402	0.000	
37	 C20	6.806	8.756	-10.497	C.2	1	X6M402	0.000	
38	 C21	5.618	8.296	-11.281	C.2	1	X6M402	0.000	
39	 C22	3.239	7.804	-11.306	C.3	1	X6M402	0.000	
40	 C23	2.766	6.377	-11.085	C.2	1	X6M402	0.000	
41	 C24	3.412	4.136	-10.324	C.3	1	X6M402	0.000	
42	 C25	4.193	3.211	-11.302	C.3	1	X6M402	0.000	
43	 C26	5.666	3.634	-11.331	C.3	1	X6M402	0.000	
44	 C27	3.611	3.340	-12.709	C.3	1	X6M402	0.000	
45	 C28	4.107	1.740	-10.883	C.3	1	X6M402	0.000	
46	 C29	3.769	3.931	-8.844	C.2	1	X6M402	0.000	
47	 C30	3.248	3.071	-6.635	C.3	1	X6M402	0.000	
48	 C31	4.651	2.547	-6.381	C.2	1	X6M402	0.000	
49	 C32	6.565	2.528	-4.840	C.3	1	X6M402	0.000	
50	 C33	7.444	3.690	-4.381	C.3	1	X6M402	0.000	
51	 C34	6.380	1.504	-3.743	C.2	1	X6M402	0.000	
52	 C35	5.202	1.429	-3.016	C.2	1	X6M402	0.000	
53	 C36	5.064	0.527	-1.975	C.2	1	X6M402	0.000	
54	 C37	6.105	-0.330	-1.637	C.2	1	X6M402	0.000	
55	 C38	5.967	-1.291	-0.522	C.2	1	X6M402	0.000	
56	 C39	6.842	-1.645	0.474	C.2	1	X6M402	0.000	
57	 C40	8.225	-1.114	0.684	C.3	1	X6M402	0.000	
58	 C41	5.162	-2.949	1.041	C.2	1	X6M402	0.000	
59	 C42	7.278	-0.263	-2.374	C.2	1	X6M402	0.000	
60	 C43	7.410	0.641	-3.410	C.2	1	X6M402	0.000	
61	 C44	2.200	2.057	-6.146	C.3	1	X6M402	0.000	
62	 C45	1.037	2.255	-7.103	C.3	1	X6M402	0.000	
63	 C46	1.722	2.492	-8.444	C.3	1	X6M402	0.000	
64	 C47	7.007	8.321	-9.191	C.2	1	X6M402	0.000	
65	 C48	8.166	8.652	-8.510	C.2	1	X6M402	0.000	
66	 C49	9.108	9.416	-9.152	C.2	1	X6M402	0.000	
67	 C50	10.874	11.528	-10.499	C.2	1	X6M402	0.000	
68	 C51	11.810	12.291	-11.175	C.2	1	X6M402	0.000	
69	   F	9.361	13.508	-19.318	 F	1	X6M402	0.000	
70	  F1	8.150	13.205	-17.595	 F	1	X6M402	0.000	
71	  F2	10.184	13.779	-17.407	 F	1	X6M402	0.000	
72	  F3	10.256	9.679	-8.493	 F	1	X6M402	0.000	
73	   S	4.484	-2.187	-0.343	S.2	1	X6M402	0.000	
@<TRIPOS>BOND
1 1 2 1
2 1 4 1
3 1 13 1
4 3 29 2
5 4 7 1
6 4 10 1
7 5 10 1
8 13 16 1
9 13 19 1
10 5 19 1
11 5 22 1
12 22 24 ar
13 8 24 1
14 6 26 2
15 8 26 1
16 26 27 1
17 27 28 ar
18 27 31 ar
19 11 28 ar
20 11 29 ar
21 29 30 ar
22 30 31 ar
23 31 32 1
24 32 69 1
25 32 70 1
26 32 71 1
27 24 33 ar
28 33 34 ar
29 34 35 1
30 34 67 ar
31 35 36 ar
32 35 66 ar
33 36 37 ar
34 37 38 1
35 37 64 ar
36 14 38 1
37 21 38 2
38 14 39 1
39 39 40 1
40 17 40 1
41 18 40 2
42 17 41 1
43 41 42 1
44 41 46 1
45 42 43 1
46 42 44 1
47 42 45 1
48 15 46 2
49 20 46 1
50 20 47 1
51 47 48 1
52 47 61 1
53 9 48 2
54 23 48 1
55 23 49 1
56 49 50 1
57 49 51 1
58 51 52 ar
59 51 60 ar
60 52 53 ar
61 53 54 ar
62 54 55 1
63 54 59 ar
64 55 56 ar
65 55 73 ar
66 25 56 ar
67 56 57 1
68 25 58 ar
69 58 73 ar
70 59 60 ar
71 61 62 1
72 12 62 1
73 62 63 1
74 20 63 1
75 64 65 ar
76 65 66 ar
77 66 72 1
78 67 68 ar
79 22 68 ar
@<TRIPOS>SUBSTRUCTURE
1	X6M402	1	GROUP	1 A	X6M
